<?xml version="1.0" encoding="utf-8"?>
<!DOCTYPE population SYSTEM "http://www.matsim.org/files/dtd/population_v6.dtd">

<population>



<!-- ====================================================================== -->

	<person id="0">
		<plan selected="yes">
			<activity type="h" x="292459.2054021727" y="2761426.1458051438" end_time="08:00:00" >
			</activity>
			<leg mode="pt">
			</leg>
			<activity type="w" x="292459.2054021727" y="2761426.1458051438" end_time="16:00:00" >
			</activity>
			<leg mode="pt">
			</leg>
			<activity type="h" x="292459.2054021727" y="2761426.1458051438" >
			</activity>
		</plan>

	</person>

<!-- ====================================================================== -->

	<person id="1">
		<plan selected="yes">
			<activity type="h" x="292459.2054021727" y="2761426.1458051438" end_time="08:01:00" >
			</activity>
			<leg mode="pt">
			</leg>
			<activity type="w" x="292459.2054021727" y="2761426.1458051438" end_time="16:01:00" >
			</activity>
			<leg mode="pt">
			</leg>
			<activity type="h" x="292459.2054021727" y="2761426.1458051438" >
			</activity>
		</plan>

	</person>

<!-- ====================================================================== -->

	<person id="10">
		<plan selected="yes">
			<activity type="h" x="292459.2054021727" y="2761426.1458051438" end_time="08:10:00" >
			</activity>
			<leg mode="pt">
			</leg>
			<activity type="w" x="292459.2054021727" y="2761426.1458051438" end_time="16:10:00" >
			</activity>
			<leg mode="pt">
			</leg>
			<activity type="h" x="292459.2054021727" y="2761426.1458051438" >
			</activity>
		</plan>

	</person>

<!-- ====================================================================== -->

	<person id="11">
		<plan selected="yes">
			<activity type="h" x="292459.2054021727" y="2761426.1458051438" end_time="08:11:00" >
			</activity>
			<leg mode="pt">
			</leg>
			<activity type="w" x="292459.2054021727" y="2761426.1458051438" end_time="16:11:00" >
			</activity>
			<leg mode="pt">
			</leg>
			<activity type="h" x="292459.2054021727" y="2761426.1458051438" >
			</activity>
		</plan>

	</person>

<!-- ====================================================================== -->

	<person id="12">
		<plan selected="yes">
			<activity type="h" x="292459.2054021727" y="2761426.1458051438" end_time="08:12:00" >
			</activity>
			<leg mode="pt">
			</leg>
			<activity type="w" x="292459.2054021727" y="2761426.1458051438" end_time="16:12:00" >
			</activity>
			<leg mode="pt">
			</leg>
			<activity type="h" x="292459.2054021727" y="2761426.1458051438" >
			</activity>
		</plan>

	</person>

<!-- ====================================================================== -->

	<person id="13">
		<plan selected="yes">
			<activity type="h" x="292459.2054021727" y="2761426.1458051438" end_time="08:13:00" >
			</activity>
			<leg mode="pt">
			</leg>
			<activity type="w" x="292459.2054021727" y="2761426.1458051438" end_time="16:13:00" >
			</activity>
			<leg mode="pt">
			</leg>
			<activity type="h" x="292459.2054021727" y="2761426.1458051438" >
			</activity>
		</plan>

	</person>

<!-- ====================================================================== -->

	<person id="14">
		<plan selected="yes">
			<activity type="h" x="292459.2054021727" y="2761426.1458051438" end_time="08:14:00" >
			</activity>
			<leg mode="pt">
			</leg>
			<activity type="w" x="292459.2054021727" y="2761426.1458051438" end_time="16:14:00" >
			</activity>
			<leg mode="pt">
			</leg>
			<activity type="h" x="292459.2054021727" y="2761426.1458051438" >
			</activity>
		</plan>

	</person>

<!-- ====================================================================== -->

	<person id="15">
		<plan selected="yes">
			<activity type="h" x="292459.2054021727" y="2761426.1458051438" end_time="08:15:00" >
			</activity>
			<leg mode="pt">
			</leg>
			<activity type="w" x="292459.2054021727" y="2761426.1458051438" end_time="16:15:00" >
			</activity>
			<leg mode="pt">
			</leg>
			<activity type="h" x="292459.2054021727" y="2761426.1458051438" >
			</activity>
		</plan>

	</person>

<!-- ====================================================================== -->

	<person id="16">
		<plan selected="yes">
			<activity type="h" x="292459.2054021727" y="2761426.1458051438" end_time="08:16:00" >
			</activity>
			<leg mode="pt">
			</leg>
			<activity type="w" x="292459.2054021727" y="2761426.1458051438" end_time="16:16:00" >
			</activity>
			<leg mode="pt">
			</leg>
			<activity type="h" x="292459.2054021727" y="2761426.1458051438" >
			</activity>
		</plan>

	</person>

<!-- ====================================================================== -->

	<person id="17">
		<plan selected="yes">
			<activity type="h" x="292459.2054021727" y="2761426.1458051438" end_time="08:17:00" >
			</activity>
			<leg mode="pt">
			</leg>
			<activity type="w" x="292459.2054021727" y="2761426.1458051438" end_time="16:17:00" >
			</activity>
			<leg mode="pt">
			</leg>
			<activity type="h" x="292459.2054021727" y="2761426.1458051438" >
			</activity>
		</plan>

	</person>

<!-- ====================================================================== -->

	<person id="18">
		<plan selected="yes">
			<activity type="h" x="292459.2054021727" y="2761426.1458051438" end_time="08:18:00" >
			</activity>
			<leg mode="pt">
			</leg>
			<activity type="w" x="292459.2054021727" y="2761426.1458051438" end_time="16:18:00" >
			</activity>
			<leg mode="pt">
			</leg>
			<activity type="h" x="292459.2054021727" y="2761426.1458051438" >
			</activity>
		</plan>

	</person>

<!-- ====================================================================== -->

	<person id="19">
		<plan selected="yes">
			<activity type="h" x="292459.2054021727" y="2761426.1458051438" end_time="08:19:00" >
			</activity>
			<leg mode="pt">
			</leg>
			<activity type="w" x="292459.2054021727" y="2761426.1458051438" end_time="16:19:00" >
			</activity>
			<leg mode="pt">
			</leg>
			<activity type="h" x="292459.2054021727" y="2761426.1458051438" >
			</activity>
		</plan>

	</person>

<!-- ====================================================================== -->

	<person id="2">
		<plan selected="yes">
			<activity type="h" x="292459.2054021727" y="2761426.1458051438" end_time="08:02:00" >
			</activity>
			<leg mode="pt">
			</leg>
			<activity type="w" x="292459.2054021727" y="2761426.1458051438" end_time="16:02:00" >
			</activity>
			<leg mode="pt">
			</leg>
			<activity type="h" x="292459.2054021727" y="2761426.1458051438" >
			</activity>
		</plan>

	</person>

<!-- ====================================================================== -->

	<person id="20">
		<plan selected="yes">
			<activity type="h" x="292459.2054021727" y="2761426.1458051438" end_time="08:20:00" >
			</activity>
			<leg mode="pt">
			</leg>
			<activity type="w" x="292459.2054021727" y="2761426.1458051438" end_time="16:20:00" >
			</activity>
			<leg mode="pt">
			</leg>
			<activity type="h" x="292459.2054021727" y="2761426.1458051438" >
			</activity>
		</plan>

	</person>

<!-- ====================================================================== -->

	<person id="21">
		<plan selected="yes">
			<activity type="h" x="292459.2054021727" y="2761426.1458051438" end_time="08:21:00" >
			</activity>
			<leg mode="pt">
			</leg>
			<activity type="w" x="292459.2054021727" y="2761426.1458051438" end_time="16:21:00" >
			</activity>
			<leg mode="pt">
			</leg>
			<activity type="h" x="292459.2054021727" y="2761426.1458051438" >
			</activity>
		</plan>

	</person>

<!-- ====================================================================== -->

	<person id="22">
		<plan selected="yes">
			<activity type="h" x="292459.2054021727" y="2761426.1458051438" end_time="08:22:00" >
			</activity>
			<leg mode="pt">
			</leg>
			<activity type="w" x="292459.2054021727" y="2761426.1458051438" end_time="16:22:00" >
			</activity>
			<leg mode="pt">
			</leg>
			<activity type="h" x="292459.2054021727" y="2761426.1458051438" >
			</activity>
		</plan>

	</person>

<!-- ====================================================================== -->

	<person id="23">
		<plan selected="yes">
			<activity type="h" x="292459.2054021727" y="2761426.1458051438" end_time="08:23:00" >
			</activity>
			<leg mode="pt">
			</leg>
			<activity type="w" x="292459.2054021727" y="2761426.1458051438" end_time="16:23:00" >
			</activity>
			<leg mode="pt">
			</leg>
			<activity type="h" x="292459.2054021727" y="2761426.1458051438" >
			</activity>
		</plan>

	</person>

<!-- ====================================================================== -->

	<person id="24">
		<plan selected="yes">
			<activity type="h" x="292459.2054021727" y="2761426.1458051438" end_time="08:24:00" >
			</activity>
			<leg mode="pt">
			</leg>
			<activity type="w" x="292459.2054021727" y="2761426.1458051438" end_time="16:24:00" >
			</activity>
			<leg mode="pt">
			</leg>
			<activity type="h" x="292459.2054021727" y="2761426.1458051438" >
			</activity>
		</plan>

	</person>

<!-- ====================================================================== -->

	<person id="25">
		<plan selected="yes">
			<activity type="h" x="292459.2054021727" y="2761426.1458051438" end_time="08:25:00" >
			</activity>
			<leg mode="pt">
			</leg>
			<activity type="w" x="292459.2054021727" y="2761426.1458051438" end_time="16:25:00" >
			</activity>
			<leg mode="pt">
			</leg>
			<activity type="h" x="292459.2054021727" y="2761426.1458051438" >
			</activity>
		</plan>

	</person>

<!-- ====================================================================== -->

	<person id="26">
		<plan selected="yes">
			<activity type="h" x="292459.2054021727" y="2761426.1458051438" end_time="08:26:00" >
			</activity>
			<leg mode="pt">
			</leg>
			<activity type="w" x="292459.2054021727" y="2761426.1458051438" end_time="16:26:00" >
			</activity>
			<leg mode="pt">
			</leg>
			<activity type="h" x="292459.2054021727" y="2761426.1458051438" >
			</activity>
		</plan>

	</person>

<!-- ====================================================================== -->

	<person id="27">
		<plan selected="yes">
			<activity type="h" x="292459.2054021727" y="2761426.1458051438" end_time="08:27:00" >
			</activity>
			<leg mode="pt">
			</leg>
			<activity type="w" x="292459.2054021727" y="2761426.1458051438" end_time="16:27:00" >
			</activity>
			<leg mode="pt">
			</leg>
			<activity type="h" x="292459.2054021727" y="2761426.1458051438" >
			</activity>
		</plan>

	</person>

<!-- ====================================================================== -->

	<person id="28">
		<plan selected="yes">
			<activity type="h" x="292459.2054021727" y="2761426.1458051438" end_time="08:28:00" >
			</activity>
			<leg mode="pt">
			</leg>
			<activity type="w" x="292459.2054021727" y="2761426.1458051438" end_time="16:28:00" >
			</activity>
			<leg mode="pt">
			</leg>
			<activity type="h" x="292459.2054021727" y="2761426.1458051438" >
			</activity>
		</plan>

	</person>

<!-- ====================================================================== -->

	<person id="29">
		<plan selected="yes">
			<activity type="h" x="292459.2054021727" y="2761426.1458051438" end_time="08:29:00" >
			</activity>
			<leg mode="pt">
			</leg>
			<activity type="w" x="292459.2054021727" y="2761426.1458051438" end_time="16:29:00" >
			</activity>
			<leg mode="pt">
			</leg>
			<activity type="h" x="292459.2054021727" y="2761426.1458051438" >
			</activity>
		</plan>

	</person>

<!-- ====================================================================== -->

	<person id="3">
		<plan selected="yes">
			<activity type="h" x="292459.2054021727" y="2761426.1458051438" end_time="08:03:00" >
			</activity>
			<leg mode="pt">
			</leg>
			<activity type="w" x="292459.2054021727" y="2761426.1458051438" end_time="16:03:00" >
			</activity>
			<leg mode="pt">
			</leg>
			<activity type="h" x="292459.2054021727" y="2761426.1458051438" >
			</activity>
		</plan>

	</person>

<!-- ====================================================================== -->

	<person id="30">
		<plan selected="yes">
			<activity type="h" x="292459.2054021727" y="2761426.1458051438" end_time="08:30:00" >
			</activity>
			<leg mode="pt">
			</leg>
			<activity type="w" x="292459.2054021727" y="2761426.1458051438" end_time="16:30:00" >
			</activity>
			<leg mode="pt">
			</leg>
			<activity type="h" x="292459.2054021727" y="2761426.1458051438" >
			</activity>
		</plan>

	</person>

<!-- ====================================================================== -->

	<person id="31">
		<plan selected="yes">
			<activity type="h" x="292459.2054021727" y="2761426.1458051438" end_time="08:31:00" >
			</activity>
			<leg mode="pt">
			</leg>
			<activity type="w" x="292459.2054021727" y="2761426.1458051438" end_time="16:31:00" >
			</activity>
			<leg mode="pt">
			</leg>
			<activity type="h" x="292459.2054021727" y="2761426.1458051438" >
			</activity>
		</plan>

	</person>

<!-- ====================================================================== -->

	<person id="32">
		<plan selected="yes">
			<activity type="h" x="292459.2054021727" y="2761426.1458051438" end_time="08:32:00" >
			</activity>
			<leg mode="pt">
			</leg>
			<activity type="w" x="292459.2054021727" y="2761426.1458051438" end_time="16:32:00" >
			</activity>
			<leg mode="pt">
			</leg>
			<activity type="h" x="292459.2054021727" y="2761426.1458051438" >
			</activity>
		</plan>

	</person>

<!-- ====================================================================== -->

	<person id="33">
		<plan selected="yes">
			<activity type="h" x="292459.2054021727" y="2761426.1458051438" end_time="08:33:00" >
			</activity>
			<leg mode="pt">
			</leg>
			<activity type="w" x="292459.2054021727" y="2761426.1458051438" end_time="16:33:00" >
			</activity>
			<leg mode="pt">
			</leg>
			<activity type="h" x="292459.2054021727" y="2761426.1458051438" >
			</activity>
		</plan>

	</person>

<!-- ====================================================================== -->

	<person id="34">
		<plan selected="yes">
			<activity type="h" x="292459.2054021727" y="2761426.1458051438" end_time="08:34:00" >
			</activity>
			<leg mode="pt">
			</leg>
			<activity type="w" x="292459.2054021727" y="2761426.1458051438" end_time="16:34:00" >
			</activity>
			<leg mode="pt">
			</leg>
			<activity type="h" x="292459.2054021727" y="2761426.1458051438" >
			</activity>
		</plan>

	</person>

<!-- ====================================================================== -->

	<person id="35">
		<plan selected="yes">
			<activity type="h" x="292459.2054021727" y="2761426.1458051438" end_time="08:35:00" >
			</activity>
			<leg mode="pt">
			</leg>
			<activity type="w" x="292459.2054021727" y="2761426.1458051438" end_time="16:35:00" >
			</activity>
			<leg mode="pt">
			</leg>
			<activity type="h" x="292459.2054021727" y="2761426.1458051438" >
			</activity>
		</plan>

	</person>

<!-- ====================================================================== -->

	<person id="36">
		<plan selected="yes">
			<activity type="h" x="292459.2054021727" y="2761426.1458051438" end_time="08:36:00" >
			</activity>
			<leg mode="pt">
			</leg>
			<activity type="w" x="292459.2054021727" y="2761426.1458051438" end_time="16:36:00" >
			</activity>
			<leg mode="pt">
			</leg>
			<activity type="h" x="292459.2054021727" y="2761426.1458051438" >
			</activity>
		</plan>

	</person>

<!-- ====================================================================== -->

	<person id="37">
		<plan selected="yes">
			<activity type="h" x="292459.2054021727" y="2761426.1458051438" end_time="08:37:00" >
			</activity>
			<leg mode="pt">
			</leg>
			<activity type="w" x="292459.2054021727" y="2761426.1458051438" end_time="16:37:00" >
			</activity>
			<leg mode="pt">
			</leg>
			<activity type="h" x="292459.2054021727" y="2761426.1458051438" >
			</activity>
		</plan>

	</person>

<!-- ====================================================================== -->

	<person id="38">
		<plan selected="yes">
			<activity type="h" x="292459.2054021727" y="2761426.1458051438" end_time="08:38:00" >
			</activity>
			<leg mode="pt">
			</leg>
			<activity type="w" x="292459.2054021727" y="2761426.1458051438" end_time="16:38:00" >
			</activity>
			<leg mode="pt">
			</leg>
			<activity type="h" x="292459.2054021727" y="2761426.1458051438" >
			</activity>
		</plan>

	</person>

<!-- ====================================================================== -->

	<person id="39">
		<plan selected="yes">
			<activity type="h" x="292459.2054021727" y="2761426.1458051438" end_time="08:39:00" >
			</activity>
			<leg mode="pt">
			</leg>
			<activity type="w" x="292459.2054021727" y="2761426.1458051438" end_time="16:39:00" >
			</activity>
			<leg mode="pt">
			</leg>
			<activity type="h" x="292459.2054021727" y="2761426.1458051438" >
			</activity>
		</plan>

	</person>

<!-- ====================================================================== -->

	<person id="4">
		<plan selected="yes">
			<activity type="h" x="292459.2054021727" y="2761426.1458051438" end_time="08:04:00" >
			</activity>
			<leg mode="pt">
			</leg>
			<activity type="w" x="292459.2054021727" y="2761426.1458051438" end_time="16:04:00" >
			</activity>
			<leg mode="pt">
			</leg>
			<activity type="h" x="292459.2054021727" y="2761426.1458051438" >
			</activity>
		</plan>

	</person>

<!-- ====================================================================== -->

	<person id="40">
		<plan selected="yes">
			<activity type="h" x="292459.2054021727" y="2761426.1458051438" end_time="08:40:00" >
			</activity>
			<leg mode="pt">
			</leg>
			<activity type="w" x="292459.2054021727" y="2761426.1458051438" end_time="16:40:00" >
			</activity>
			<leg mode="pt">
			</leg>
			<activity type="h" x="292459.2054021727" y="2761426.1458051438" >
			</activity>
		</plan>

	</person>

<!-- ====================================================================== -->

	<person id="41">
		<plan selected="yes">
			<activity type="h" x="292459.2054021727" y="2761426.1458051438" end_time="08:41:00" >
			</activity>
			<leg mode="pt">
			</leg>
			<activity type="w" x="292459.2054021727" y="2761426.1458051438" end_time="16:41:00" >
			</activity>
			<leg mode="pt">
			</leg>
			<activity type="h" x="292459.2054021727" y="2761426.1458051438" >
			</activity>
		</plan>

	</person>

<!-- ====================================================================== -->

	<person id="42">
		<plan selected="yes">
			<activity type="h" x="292459.2054021727" y="2761426.1458051438" end_time="08:42:00" >
			</activity>
			<leg mode="pt">
			</leg>
			<activity type="w" x="292459.2054021727" y="2761426.1458051438" end_time="16:42:00" >
			</activity>
			<leg mode="pt">
			</leg>
			<activity type="h" x="292459.2054021727" y="2761426.1458051438" >
			</activity>
		</plan>

	</person>

<!-- ====================================================================== -->

	<person id="43">
		<plan selected="yes">
			<activity type="h" x="292459.2054021727" y="2761426.1458051438" end_time="08:43:00" >
			</activity>
			<leg mode="pt">
			</leg>
			<activity type="w" x="292459.2054021727" y="2761426.1458051438" end_time="16:43:00" >
			</activity>
			<leg mode="pt">
			</leg>
			<activity type="h" x="292459.2054021727" y="2761426.1458051438" >
			</activity>
		</plan>

	</person>

<!-- ====================================================================== -->

	<person id="44">
		<plan selected="yes">
			<activity type="h" x="292459.2054021727" y="2761426.1458051438" end_time="08:44:00" >
			</activity>
			<leg mode="pt">
			</leg>
			<activity type="w" x="292459.2054021727" y="2761426.1458051438" end_time="16:44:00" >
			</activity>
			<leg mode="pt">
			</leg>
			<activity type="h" x="292459.2054021727" y="2761426.1458051438" >
			</activity>
		</plan>

	</person>

<!-- ====================================================================== -->

	<person id="45">
		<plan selected="yes">
			<activity type="h" x="292459.2054021727" y="2761426.1458051438" end_time="08:45:00" >
			</activity>
			<leg mode="pt">
			</leg>
			<activity type="w" x="292459.2054021727" y="2761426.1458051438" end_time="16:45:00" >
			</activity>
			<leg mode="pt">
			</leg>
			<activity type="h" x="292459.2054021727" y="2761426.1458051438" >
			</activity>
		</plan>

	</person>

<!-- ====================================================================== -->

	<person id="46">
		<plan selected="yes">
			<activity type="h" x="292459.2054021727" y="2761426.1458051438" end_time="08:46:00" >
			</activity>
			<leg mode="pt">
			</leg>
			<activity type="w" x="292459.2054021727" y="2761426.1458051438" end_time="16:46:00" >
			</activity>
			<leg mode="pt">
			</leg>
			<activity type="h" x="292459.2054021727" y="2761426.1458051438" >
			</activity>
		</plan>

	</person>

<!-- ====================================================================== -->

	<person id="47">
		<plan selected="yes">
			<activity type="h" x="292459.2054021727" y="2761426.1458051438" end_time="08:47:00" >
			</activity>
			<leg mode="pt">
			</leg>
			<activity type="w" x="292459.2054021727" y="2761426.1458051438" end_time="16:47:00" >
			</activity>
			<leg mode="pt">
			</leg>
			<activity type="h" x="292459.2054021727" y="2761426.1458051438" >
			</activity>
		</plan>

	</person>

<!-- ====================================================================== -->

	<person id="48">
		<plan selected="yes">
			<activity type="h" x="292459.2054021727" y="2761426.1458051438" end_time="08:48:00" >
			</activity>
			<leg mode="pt">
			</leg>
			<activity type="w" x="292459.2054021727" y="2761426.1458051438" end_time="16:48:00" >
			</activity>
			<leg mode="pt">
			</leg>
			<activity type="h" x="292459.2054021727" y="2761426.1458051438" >
			</activity>
		</plan>

	</person>

<!-- ====================================================================== -->

	<person id="49">
		<plan selected="yes">
			<activity type="h" x="292459.2054021727" y="2761426.1458051438" end_time="08:49:00" >
			</activity>
			<leg mode="pt">
			</leg>
			<activity type="w" x="292459.2054021727" y="2761426.1458051438" end_time="16:49:00" >
			</activity>
			<leg mode="pt">
			</leg>
			<activity type="h" x="292459.2054021727" y="2761426.1458051438" >
			</activity>
		</plan>

	</person>

<!-- ====================================================================== -->

	<person id="5">
		<plan selected="yes">
			<activity type="h" x="292459.2054021727" y="2761426.1458051438" end_time="08:05:00" >
			</activity>
			<leg mode="pt">
			</leg>
			<activity type="w" x="292459.2054021727" y="2761426.1458051438" end_time="16:05:00" >
			</activity>
			<leg mode="pt">
			</leg>
			<activity type="h" x="292459.2054021727" y="2761426.1458051438" >
			</activity>
		</plan>

	</person>

<!-- ====================================================================== -->

	<person id="50">
		<plan selected="yes">
			<activity type="h" x="292459.2054021727" y="2761426.1458051438" end_time="08:50:00" >
			</activity>
			<leg mode="pt">
			</leg>
			<activity type="w" x="292459.2054021727" y="2761426.1458051438" end_time="16:50:00" >
			</activity>
			<leg mode="pt">
			</leg>
			<activity type="h" x="292459.2054021727" y="2761426.1458051438" >
			</activity>
		</plan>

	</person>

<!-- ====================================================================== -->

	<person id="51">
		<plan selected="yes">
			<activity type="h" x="292459.2054021727" y="2761426.1458051438" end_time="08:51:00" >
			</activity>
			<leg mode="pt">
			</leg>
			<activity type="w" x="292459.2054021727" y="2761426.1458051438" end_time="16:51:00" >
			</activity>
			<leg mode="pt">
			</leg>
			<activity type="h" x="292459.2054021727" y="2761426.1458051438" >
			</activity>
		</plan>

	</person>

<!-- ====================================================================== -->

	<person id="52">
		<plan selected="yes">
			<activity type="h" x="292459.2054021727" y="2761426.1458051438" end_time="08:52:00" >
			</activity>
			<leg mode="pt">
			</leg>
			<activity type="w" x="292459.2054021727" y="2761426.1458051438" end_time="16:52:00" >
			</activity>
			<leg mode="pt">
			</leg>
			<activity type="h" x="292459.2054021727" y="2761426.1458051438" >
			</activity>
		</plan>

	</person>

<!-- ====================================================================== -->

	<person id="53">
		<plan selected="yes">
			<activity type="h" x="292459.2054021727" y="2761426.1458051438" end_time="08:53:00" >
			</activity>
			<leg mode="pt">
			</leg>
			<activity type="w" x="292459.2054021727" y="2761426.1458051438" end_time="16:53:00" >
			</activity>
			<leg mode="pt">
			</leg>
			<activity type="h" x="292459.2054021727" y="2761426.1458051438" >
			</activity>
		</plan>

	</person>

<!-- ====================================================================== -->

	<person id="54">
		<plan selected="yes">
			<activity type="h" x="292459.2054021727" y="2761426.1458051438" end_time="08:54:00" >
			</activity>
			<leg mode="pt">
			</leg>
			<activity type="w" x="292459.2054021727" y="2761426.1458051438" end_time="16:54:00" >
			</activity>
			<leg mode="pt">
			</leg>
			<activity type="h" x="292459.2054021727" y="2761426.1458051438" >
			</activity>
		</plan>

	</person>

<!-- ====================================================================== -->

	<person id="55">
		<plan selected="yes">
			<activity type="h" x="292459.2054021727" y="2761426.1458051438" end_time="08:55:00" >
			</activity>
			<leg mode="pt">
			</leg>
			<activity type="w" x="292459.2054021727" y="2761426.1458051438" end_time="16:55:00" >
			</activity>
			<leg mode="pt">
			</leg>
			<activity type="h" x="292459.2054021727" y="2761426.1458051438" >
			</activity>
		</plan>

	</person>

<!-- ====================================================================== -->

	<person id="56">
		<plan selected="yes">
			<activity type="h" x="292459.2054021727" y="2761426.1458051438" end_time="08:56:00" >
			</activity>
			<leg mode="pt">
			</leg>
			<activity type="w" x="292459.2054021727" y="2761426.1458051438" end_time="16:56:00" >
			</activity>
			<leg mode="pt">
			</leg>
			<activity type="h" x="292459.2054021727" y="2761426.1458051438" >
			</activity>
		</plan>

	</person>

<!-- ====================================================================== -->

	<person id="57">
		<plan selected="yes">
			<activity type="h" x="292459.2054021727" y="2761426.1458051438" end_time="08:57:00" >
			</activity>
			<leg mode="pt">
			</leg>
			<activity type="w" x="292459.2054021727" y="2761426.1458051438" end_time="16:57:00" >
			</activity>
			<leg mode="pt">
			</leg>
			<activity type="h" x="292459.2054021727" y="2761426.1458051438" >
			</activity>
		</plan>

	</person>

<!-- ====================================================================== -->

	<person id="58">
		<plan selected="yes">
			<activity type="h" x="292459.2054021727" y="2761426.1458051438" end_time="08:58:00" >
			</activity>
			<leg mode="pt">
			</leg>
			<activity type="w" x="292459.2054021727" y="2761426.1458051438" end_time="16:58:00" >
			</activity>
			<leg mode="pt">
			</leg>
			<activity type="h" x="292459.2054021727" y="2761426.1458051438" >
			</activity>
		</plan>

	</person>

<!-- ====================================================================== -->

	<person id="59">
		<plan selected="yes">
			<activity type="h" x="292459.2054021727" y="2761426.1458051438" end_time="08:59:00" >
			</activity>
			<leg mode="pt">
			</leg>
			<activity type="w" x="292459.2054021727" y="2761426.1458051438" end_time="16:59:00" >
			</activity>
			<leg mode="pt">
			</leg>
			<activity type="h" x="292459.2054021727" y="2761426.1458051438" >
			</activity>
		</plan>

	</person>

<!-- ====================================================================== -->

	<person id="6">
		<plan selected="yes">
			<activity type="h" x="292459.2054021727" y="2761426.1458051438" end_time="08:06:00" >
			</activity>
			<leg mode="pt">
			</leg>
			<activity type="w" x="292459.2054021727" y="2761426.1458051438" end_time="16:06:00" >
			</activity>
			<leg mode="pt">
			</leg>
			<activity type="h" x="292459.2054021727" y="2761426.1458051438" >
			</activity>
		</plan>

	</person>

<!-- ====================================================================== -->

	<person id="60">
		<plan selected="yes">
			<activity type="h" x="292459.2054021727" y="2761426.1458051438" end_time="09:00:00" >
			</activity>
			<leg mode="pt">
			</leg>
			<activity type="w" x="292459.2054021727" y="2761426.1458051438" end_time="17:00:00" >
			</activity>
			<leg mode="pt">
			</leg>
			<activity type="h" x="292459.2054021727" y="2761426.1458051438" >
			</activity>
		</plan>

	</person>

<!-- ====================================================================== -->

	<person id="61">
		<plan selected="yes">
			<activity type="h" x="292459.2054021727" y="2761426.1458051438" end_time="09:01:00" >
			</activity>
			<leg mode="pt">
			</leg>
			<activity type="w" x="292459.2054021727" y="2761426.1458051438" end_time="17:01:00" >
			</activity>
			<leg mode="pt">
			</leg>
			<activity type="h" x="292459.2054021727" y="2761426.1458051438" >
			</activity>
		</plan>

	</person>

<!-- ====================================================================== -->

	<person id="62">
		<plan selected="yes">
			<activity type="h" x="292459.2054021727" y="2761426.1458051438" end_time="09:02:00" >
			</activity>
			<leg mode="pt">
			</leg>
			<activity type="w" x="292459.2054021727" y="2761426.1458051438" end_time="17:02:00" >
			</activity>
			<leg mode="pt">
			</leg>
			<activity type="h" x="292459.2054021727" y="2761426.1458051438" >
			</activity>
		</plan>

	</person>

<!-- ====================================================================== -->

	<person id="63">