<?xml version="1.0" encoding="UTF-8"?>
<!DOCTYPE network SYSTEM "http://www.matsim.org/files/dtd/network_v2.dtd">
<network name="bl-corridor">
	<nodes>
		<node id="BL14" x="303804.189" y="2770590.711" />
		<node id="BL15" x="304996.853" y="2770512.496" />
	</nodes>
	<links>
		<link id="BL14_BL15" from="BL14" to="BL15" length="1200.0" freespeed="40.0" capacity="10000.0" permlanes="1.0" modes="pt,subway" />
		<link id="BL15_BL14" from="BL15" to="BL14" length="1200.0" freespeed="40.0" capacity="10000.0" permlanes="1.0" modes="pt,subway" />
	</links>
</network>
