<?xml version="1.0" encoding="UTF-8"?>
<!DOCTYPE network SYSTEM "http://www.matsim.org/files/dtd/network_v2.dtd">

<network name="local-corridor">
	<nodes>
		<node id="N_W_S" x="303898.776" y="2770312.509"/>
		<node id="N_C_S" x="304200.000" y="2770360.000"/>
		<node id="N_C_M" x="304450.000" y="2770600.000"/>
		<node id="N_C_N" x="304450.000" y="2770950.000"/>
		<node id="N_W_N" x="303909.274" y="2770996.136"/>
		<node id="N_E_S" x="304840.179" y="2770264.023"/>
		<node id="N_E_N" x="304840.179" y="2770950.000"/>
		<node id="BL14_NODE" x="303921.859" y="2770436.792"/>
		<node id="BL15_NODE" x="305064.492" y="2770250.713"/>
		<node id="2083636112" x="304355.77063324593" y="2770497.025738433"/>
		<node id="2083636109" x="304650.86438900826" y="2770494.182424794"/>
		<node id="269201070" x="303870.5335961778" y="2770560.821526394"/>
		<node id="2083636114" x="304423.16580240155" y="2770510.420042672"/>
		<node id="2444664369" x="304016.9658124588" y="2770539.933164831"/>
		<node id="5372642442" x="303774.711022167" y="2770578.3992927717"/>
	</nodes>
	<links capperiod="01:00:00">
		<link id="L_N_W_S_N_C_S" from="N_W_S" to="N_C_S" length="304.9" freespeed="13.9" capacity="2000.0" permlanes="1.0" modes="car,ride,pt"/>
		<link id="L_N_C_S_N_W_S" from="N_C_S" to="N_W_S" length="304.9" freespeed="13.9" capacity="2000.0" permlanes="1.0" modes="car,ride,pt"/>
		<link id="L_N_C_S_N_C_M" from="N_C_S" to="N_C_M" length="346.6" freespeed="13.9" capacity="2000.0" permlanes="1.0" modes="car,ride,pt"/>
		<link id="L_N_C_M_N_C_S" from="N_C_M" to="N_C_S" length="346.6" freespeed="13.9" capacity="2000.0" permlanes="1.0" modes="car,ride,pt"/>
		<link id="L_N_C_M_N_C_N" from="N_C_M" to="N_C_N" length="350.0" freespeed="13.9" capacity="2000.0" permlanes="1.0" modes="car,ride,pt"/>
		<link id="L_N_C_N_N_C_M" from="N_C_N" to="N_C_M" length="350.0" freespeed="13.9" capacity="2000.0" permlanes="1.0" modes="car,ride,pt"/>
		<link id="L_N_C_N_N_W_N" from="N_C_N" to="N_W_N" length="542.7" freespeed="13.9" capacity="2000.0" permlanes="1.0" modes="car,ride,pt"/>
		<link id="L_N_W_N_N_C_N" from="N_W_N" to="N_C_N" length="542.7" freespeed="13.9" capacity="2000.0" permlanes="1.0" modes="car,ride,pt"/>
		<link id="L_N_C_N_N_E_N" from="N_C_N" to="N_E_N" length="390.2" freespeed="13.9" capacity="2000.0" permlanes="1.0" modes="car,ride,pt"/>
		<link id="L_N_E_N_N_C_N" from="N_E_N" to="N_C_N" length="390.2" freespeed="13.9" capacity="2000.0" permlanes="1.0" modes="car,ride,pt"/>
		<link id="L_N_C_S_N_E_S" from="N_C_S" to="N_E_S" length="647.3" freespeed="13.9" capacity="2000.0" permlanes="1.0" modes="car,ride,pt"/>
		<link id="L_N_E_S_N_C_S" from="N_E_S" to="N_C_S" length="647.3" freespeed="13.9" capacity="2000.0" permlanes="1.0" modes="car,ride,pt"/>
		<link id="L_N_C_M_N_E_S" from="N_C_M" to="N_E_S" length="514.9" freespeed="13.9" capacity="2000.0" permlanes="1.0" modes="car,ride,pt"/>
		<link id="L_N_E_S_N_C_M" from="N_E_S" to="N_C_M" length="514.9" freespeed="13.9" capacity="2000.0" permlanes="1.0" modes="car,ride,pt"/>
		<link id="L_N_E_S_N_E_N" from="N_E_S" to="N_E_N" length="686.0" freespeed="13.9" capacity="2000.0" permlanes="1.0" modes="car,ride,pt"/>
		<link id="L_N_E_N_N_E_S" from="N_E_N" to="N_E_S" length="686.0" freespeed="13.9" capacity="2000.0" permlanes="1.0" modes="car,ride,pt"/>
		<link id="L_N_W_S_N_W_N" from="N_W_S" to="N_W_N" length="683.7" freespeed="13.9" capacity="2000.0" permlanes="1.0" modes="car,ride,pt"/>
		<link id="L_N_W_N_N_W_S" from="N_W_N" to="N_W_S" length="683.7" freespeed="13.9" capacity="2000.0" permlanes="1.0" modes="car,ride,pt"/>
		<link id="L_BL14_NODE_BL15_NODE" from="BL14_NODE" to="BL15_NODE" length="1157.7" freespeed="25.0" capacity="10000.0" permlanes="1.0" modes="pt,subway"/>
		<link id="L_BL15_NODE_BL14_NODE" from="BL15_NODE" to="BL14_NODE" length="1157.7" freespeed="25.0" capacity="10000.0" permlanes="1.0" modes="pt,subway"/>
		<link id="21641" from="2083636112" to="2083636109" length="295.1077520379761" freespeed="22.22222222222222" capacity="9999.0" permlanes="1.0" oneway="1" modes="pt,subway">
			<attributes>
				<attribute name="osm:relation:route" class="java.lang.String">subway</attribute>
				<attribute name="osm:way:id" class="java.lang.Long">198199193</attribute>
				<attribute name="osm:way:name" class="java.lang.String">捷運板南線</attribute>
				<attribute name="osm:way:network" class="java.lang.String">台北捷運</attribute>
				<attribute name="osm:way:railway" class="java.lang.String">subway</attribute>
				<attribute name="osm:way:tunnel" class="java.lang.String">yes</attribute>
			</attributes>
		</link>
		<link id="21642" from="2083636109" to="2083636112" length="295.1077520379761" freespeed="22.22222222222222" capacity="9999.0" permlanes="1.0" oneway="1" modes="pt,subway">
			<attributes>
				<attribute name="osm:relation:route" class="java.lang.String">subway</attribute>
				<attribute name="osm:way:id" class="java.lang.Long">198199193</attribute>
				<attribute name="osm:way:name" class="java.lang.String">捷運板南線</attribute>
				<attribute name="osm:way:network" class="java.lang.String">台北捷運</attribute>
				<attribute name="osm:way:railway" class="java.lang.String">subway</attribute>
				<attribute name="osm:way:tunnel" class="java.lang.String">yes</attribute>
			</attributes>
		</link>
		<link id="21643" from="269201070" to="2083636114" length="556.2259403724408" freespeed="22.22222222222222" capacity="9999.0" permlanes="1.0" oneway="1" modes="pt,subway">
			<attributes>
				<attribute name="osm:relation:route" class="java.lang.String">subway</attribute>
				<attribute name="osm:way:id" class="java.lang.Long">198199194</attribute>
				<attribute name="osm:way:name" class="java.lang.String">捷運板南線</attribute>
				<attribute name="osm:way:network" class="java.lang.String">台北捷運</attribute>
				<attribute name="osm:way:railway" class="java.lang.String">subway</attribute>
				<attribute name="osm:way:tunnel" class="java.lang.String">yes</attribute>
			</attributes>
		</link>
		<link id="21644" from="2083636114" to="269201070" length="556.2259403724408" freespeed="22.22222222222222" capacity="9999.0" permlanes="1.0" oneway="1" modes="pt,subway">
			<attributes>
				<attribute name="osm:relation:route" class="java.lang.String">subway</attribute>
				<attribute name="osm:way:id" class="java.lang.Long">198199194</attribute>
				<attribute name="osm:way:name" class="java.lang.String">捷運板南線</attribute>
				<attribute name="osm:way:network" class="java.lang.String">台北捷運</attribute>
				<attribute name="osm:way:railway" class="java.lang.String">subway</attribute>
				<attribute name="osm:way:tunnel" class="java.lang.String">yes</attribute>
			</attributes>
		</link>
		<link id="38695" from="2444664369" to="5372642442" length="245.32354683387356" freespeed="22.22222222222222" capacity="4500.0" permlanes="3.0" oneway="1" modes="bus,car,pt">
			<attributes>
				<attribute name="osm:relation:route" class="java.lang.String">bus,road</attribute>
				<attribute name="osm:way:highway" class="java.lang.String">primary</attribute>
				<attribute name="osm:way:id" class="java.lang.Long">506322854</attribute>
				<attribute name="osm:way:lanes" class="java.lang.String">3</attribute>
				<attribute name="osm:way:name" class="java.lang.String">忠孝東路三段</attribute>
				<attribute name="osm:way:oneway" class="java.lang.String">yes</attribute>
			</attributes>
		</link>
	</links>
</network>
