<?xml version="1.0" encoding="UTF-8"?>
<!DOCTYPE network SYSTEM "http://www.matsim.org/files/dtd/network_v2.dtd">

<network name="local-corridor">
	<nodes>
		<node id="N_W_S" x="303898.776" y="2770312.509"/>
		<node id="N_C_S" x="304200.000" y="2770360.000"/>
		<node id="N_C_M" x="304450.000" y="2770600.000"/>
		<node id="N_C_N" x="304450.000" y="2770950.000"/>
		<node id="N_W_N" x="303909.274" y="2770996.136"/>
		<node id="N_E_S" x="304840.179" y="2770264.023"/>
		<node id="N_E_N" x="304840.179" y="2770950.000"/>
		<node id="BL14_NODE" x="303921.859" y="2770436.792"/>
		<node id="BL15_NODE" x="305064.492" y="2770250.713"/>
	</nodes>
	<links capperiod="01:00:00">
		<link id="L_N_W_S_N_C_S" from="N_W_S" to="N_C_S" length="304.9" freespeed="13.9" capacity="2000.0" permlanes="1.0" modes="car,ride,pt"/>
		<link id="L_N_C_S_N_W_S" from="N_C_S" to="N_W_S" length="304.9" freespeed="13.9" capacity="2000.0" permlanes="1.0" modes="car,ride,pt"/>
		<link id="L_N_C_S_N_C_M" from="N_C_S" to="N_C_M" length="346.6" freespeed="13.9" capacity="2000.0" permlanes="1.0" modes="car,ride,pt"/>
		<link id="L_N_C_M_N_C_S" from="N_C_M" to="N_C_S" length="346.6" freespeed="13.9" capacity="2000.0" permlanes="1.0" modes="car,ride,pt"/>
		<link id="L_N_C_M_N_C_N" from="N_C_M" to="N_C_N" length="350.0" freespeed="13.9" capacity="2000.0" permlanes="1.0" modes="car,ride,pt"/>
		<link id="L_N_C_N_N_C_M" from="N_C_N" to="N_C_M" length="350.0" freespeed="13.9" capacity="2000.0" permlanes="1.0" modes="car,ride,pt"/>
		<link id="L_N_C_N_N_W_N" from="N_C_N" to="N_W_N" length="542.7" freespeed="13.9" capacity="2000.0" permlanes="1.0" modes="car,ride,pt"/>
		<link id="L_N_W_N_N_C_N" from="N_W_N" to="N_C_N" length="542.7" freespeed="13.9" capacity="2000.0" permlanes="1.0" modes="car,ride,pt"/>
		<link id="L_N_C_N_N_E_N" from="N_C_N" to="N_E_N" length="390.2" freespeed="13.9" capacity="2000.0" permlanes="1.0" modes="car,ride,pt"/>
		<link id="L_N_E_N_N_C_N" from="N_E_N" to="N_C_N" length="390.2" freespeed="13.9" capacity="2000.0" permlanes="1.0" modes="car,ride,pt"/>
		<link id="L_N_C_S_N_E_S" from="N_C_S" to="N_E_S" length="647.3" freespeed="13.9" capacity="2000.0" permlanes="1.0" modes="car,ride,pt"/>
		<link id="L_N_E_S_N_C_S" from="N_E_S" to="N_C_S" length="647.3" freespeed="13.9" capacity="2000.0" permlanes="1.0" modes="car,ride,pt"/>
		<link id="L_N_C_M_N_E_S" from="N_C_M" to="N_E_S" length="514.9" freespeed="13.9" capacity="2000.0" permlanes="1.0" modes="car,ride,pt"/>
		<link id="L_N_E_S_N_C_M" from="N_E_S" to="N_C_M" length="514.9" freespeed="13.9" capacity="2000.0" permlanes="1.0" modes="car,ride,pt"/>
		<link id="L_N_E_S_N_E_N" from="N_E_S" to="N_E_N" length="686.0" freespeed="13.9" capacity="2000.0" permlanes="1.0" modes="car,ride,pt"/>
		<link id="L_N_E_N_N_E_S" from="N_E_N" to="N_E_S" length="686.0" freespeed="13.9" capacity="2000.0" permlanes="1.0" modes="car,ride,pt"/>
		<link id="L_N_W_S_N_W_N" from="N_W_S" to="N_W_N" length="683.7" freespeed="13.9" capacity="2000.0" permlanes="1.0" modes="car,ride,pt"/>
		<link id="L_N_W_N_N_W_S" from="N_W_N" to="N_W_S" length="683.7" freespeed="13.9" capacity="2000.0" permlanes="1.0" modes="car,ride,pt"/>
		<link id="L_BL14_NODE_BL15_NODE" from="BL14_NODE" to="BL15_NODE" length="1157.7" freespeed="25.0" capacity="10000.0" permlanes="1.0" modes="pt,subway"/>
		<link id="L_BL15_NODE_BL14_NODE" from="BL15_NODE" to="BL14_NODE" length="1157.7" freespeed="25.0" capacity="10000.0" permlanes="1.0" modes="pt,subway"/>
	</links>
</network>
