<?xml version="1.0" encoding="utf-8"?>
<!DOCTYPE population SYSTEM "http://www.matsim.org/files/dtd/population_v6.dtd">

<population>
	<!-- pt_agent_01 (pt) -->
	<person id="pt_agent_01">
		<plan selected="no">
			<activity type="home" x="294035.05" y="2762173.24" end_time="06:56:50"/>
			<leg mode="pt"/>
			<activity type="work" x="303804.19" y="2770590.71" end_time="14:56:12"/>
			<leg mode="pt"/>
			<activity type="leisure" x="300488.79" y="2769778.54" end_time="17:15:58"/>
			<leg mode="pt"/>
			<activity type="home" x="294035.05" y="2762173.24"/>
		</plan>
		<plan selected="yes">
			<activity type="home" x="294035.05" y="2762173.24" end_time="06:56:50"/>
			<leg mode="pt"/>
			<activity type="work" x="303804.19" y="2770590.71" end_time="14:56:12"/>
			<leg mode="pt"/>
			<activity type="leisure" x="300488.79" y="2769778.54" end_time="17:15:58"/>
			<leg mode="pt"/>
			<activity type="home" x="294035.05" y="2762173.24"/>
		</plan>
	</person>
	<!-- pt_agent_02 (pt) -->
	<person id="pt_agent_02">
		<plan selected="no">
			<activity type="home" x="296356.46" y="2766793.71" end_time="06:16:05"/>
			<leg mode="pt"/>
			<activity type="shop" x="304996.85" y="2770512.5" end_time="07:44:55"/>
			<leg mode="pt"/>
			<activity type="education" x="296356.46" y="2766793.71" end_time="14:04:00"/>
			<leg mode="pt"/>
			<activity type="leisure" x="305421.56" y="2772105.34" end_time="16:21:02"/>
			<leg mode="pt"/>
			<activity type="home" x="296356.46" y="2766793.71"/>
		</plan>
		<plan selected="yes">
			<activity type="home" x="296356.46" y="2766793.71" end_time="06:16:05"/>
			<leg mode="pt"/>
			<activity type="shop" x="304996.85" y="2770512.5" end_time="07:44:55"/>
			<leg mode="pt"/>
			<activity type="education" x="296356.46" y="2766793.71" end_time="14:04:00"/>
			<leg mode="pt"/>
			<activity type="leisure" x="305421.56" y="2772105.34" end_time="16:21:02"/>
			<leg mode="pt"/>
			<activity type="home" x="296356.46" y="2766793.71"/>
		</plan>
	</person>
	<!-- pt_agent_03 (pt) -->
	<person id="pt_agent_03">
		<plan selected="no">
			<activity type="home" x="300488.79" y="2769778.54" end_time="06:15:17"/>
			<leg mode="pt"/>
			<activity type="shop" x="306784.31" y="2769959.91" end_time="07:43:15"/>
			<leg mode="pt"/>
			<activity type="education" x="294035.05" y="2762173.24" end_time="13:58:23"/>
			<leg mode="pt"/>
			<activity type="work" x="308143.01" y="2770426.5" end_time="22:15:36"/>
			<leg mode="pt"/>
			<activity type="home" x="300488.79" y="2769778.54"/>
		</plan>
		<plan selected="yes">
			<activity type="home" x="300488.79" y="2769778.54" end_time="06:15:17"/>
			<leg mode="pt"/>
			<activity type="shop" x="306784.31" y="2769959.91" end_time="07:43:15"/>
			<leg mode="pt"/>
			<activity type="education" x="294035.05" y="2762173.24" end_time="13:58:23"/>
			<leg mode="pt"/>
			<activity type="work" x="308143.01" y="2770426.5" end_time="22:15:36"/>
			<leg mode="pt"/>
			<activity type="home" x="300488.79" y="2769778.54"/>
		</plan>
	</person>
	<!-- pt_agent_04 (pt) -->
	<person id="pt_agent_04">
		<plan selected="no">
			<activity type="home" x="301278.16" y="2770528.6" end_time="06:25:37"/>
			<leg mode="pt"/>
			<activity type="education" x="300488.79" y="2769778.54" end_time="12:29:26"/>
			<leg mode="pt"/>
			<activity type="leisure" x="294035.05" y="2762173.24" end_time="14:48:57"/>
			<leg mode="pt"/>
			<activity type="shop" x="305544.29" y="2770487.68" end_time="16:34:11"/>
			<leg mode="pt"/>
			<activity type="home" x="301278.16" y="2770528.6"/>
		</plan>
		<plan selected="yes">
			<activity type="home" x="301278.16" y="2770528.6" end_time="06:25:37"/>
			<leg mode="pt"/>
			<activity type="education" x="300488.79" y="2769778.54" end_time="12:29:26"/>
			<leg mode="pt"/>
			<activity type="leisure" x="294035.05" y="2762173.24" end_time="14:48:57"/>
			<leg mode="pt"/>
			<activity type="shop" x="305544.29" y="2770487.68" end_time="16:34:11"/>
			<leg mode="pt"/>
			<activity type="home" x="301278.16" y="2770528.6"/>
		</plan>
	</person>
	<!-- pt_agent_05 (pt) -->
	<person id="pt_agent_05">
		<plan selected="no">
			<activity type="home" x="302208.73" y="2771006.76" end_time="06:26:36"/>
			<leg mode="pt"/>
			<activity type="leisure" x="303804.19" y="2770590.71" end_time="08:24:05"/>
			<leg mode="pt"/>
			<activity type="work" x="305795.35" y="2770702.2" end_time="16:39:24"/>
			<leg mode="pt"/>
			<activity type="education" x="296356.46" y="2766793.71" end_time="22:58:23"/>
			<leg mode="pt"/>
			<activity type="home" x="302208.73" y="2771006.76"/>
		</plan>
		<plan selected="yes">
			<activity type="home" x="302208.73" y="2771006.76" end_time="06:26:36"/>
			<leg mode="pt"/>
			<activity type="leisure" x="303804.19" y="2770590.71" end_time="08:24:05"/>
			<leg mode="pt"/>
			<activity type="work" x="305795.35" y="2770702.2" end_time="16:39:24"/>
			<leg mode="pt"/>
			<activity type="education" x="296356.46" y="2766793.71" end_time="22:58:23"/>
			<leg mode="pt"/>
			<activity type="home" x="302208.73" y="2771006.76"/>
		</plan>
	</person>
	<!-- pt_agent_06 (pt) -->
	<person id="pt_agent_06">
		<plan selected="no">
			<activity type="home" x="304996.85" y="2770512.5" end_time="07:06:31"/>
			<leg mode="pt"/>
			<activity type="leisure" x="296356.46" y="2766793.71" end_time="09:07:58"/>
			<leg mode="pt"/>
			<activity type="shop" x="303763.41" y="2771719.82" end_time="10:48:33"/>
			<leg mode="pt"/>
			<activity type="work" x="302208.73" y="2771006.76" end_time="19:02:38"/>
			<leg mode="pt"/>
			<activity type="home" x="304996.85" y="2770512.5"/>
		</plan>
		<plan selected="yes">
			<activity type="home" x="304996.85" y="2770512.5" end_time="07:06:31"/>
			<leg mode="pt"/>
			<activity type="leisure" x="296356.46" y="2766793.71" end_time="09:07:58"/>
			<leg mode="pt"/>
			<activity type="shop" x="303763.41" y="2771719.82" end_time="10:48:33"/>
			<leg mode="pt"/>
			<activity type="work" x="302208.73" y="2771006.76" end_time="19:02:38"/>
			<leg mode="pt"/>
			<activity type="home" x="304996.85" y="2770512.5"/>
		</plan>
	</person>
	<!-- pt_agent_07 (pt) -->
	<person id="pt_agent_07">
		<plan selected="no">
			<activity type="home" x="305544.29" y="2770487.68" end_time="06:51:16"/>
			<leg mode="pt"/>
			<activity type="education" x="301278.16" y="2770528.6" end_time="12:48:49"/>
			<leg mode="pt"/>
			<activity type="leisure" x="294035.05" y="2762173.24" end_time="14:59:53"/>
			<leg mode="pt"/>
			<activity type="shop" x="302953.21" y="2775206.77" end_time="16:40:35"/>
			<leg mode="pt"/>
			<activity type="home" x="305544.29" y="2770487.68"/>
		</plan>
		<plan selected="yes">
			<activity type="home" x="305544.29" y="2770487.68" end_time="06:51:16"/>
			<leg mode="pt"/>
			<activity type="education" x="301278.16" y="2770528.6" end_time="12:48:49"/>
			<leg mode="pt"/>
			<activity type="leisure" x="294035.05" y="2762173.24" end_time="14:59:53"/>
			<leg mode="pt"/>
			<activity type="shop" x="302953.21" y="2775206.77" end_time="16:40:35"/>
			<leg mode="pt"/>
			<activity type="home" x="305544.29" y="2770487.68"/>
		</plan>
	</person>
	<!-- pt_agent_08 (pt) -->
	<person id="pt_agent_08">
		<plan selected="no">
			<activity type="home" x="303804.19" y="2770590.71" end_time="06:58:59"/>
			<leg mode="pt"/>
			<activity type="leisure" x="303804.19" y="2770590.71" end_time="09:03:06"/>
			<leg mode="pt"/>
			<activity type="work" x="294035.05" y="2762173.24" end_time="17:22:47"/>
			<leg mode="pt"/>
			<activity type="shop" x="296356.46" y="2766793.71" end_time="19:04:59"/>
			<leg mode="pt"/>
			<activity type="home" x="303804.19" y="2770590.71"/>
		</plan>
		<plan selected="yes">
			<activity type="home" x="303804.19" y="2770590.71" end_time="06:58:59"/>
			<leg mode="pt"/>
			<activity type="leisure" x="303804.19" y="2770590.71" end_time="09:03:06"/>
			<leg mode="pt"/>
			<activity type="work" x="294035.05" y="2762173.24" end_time="17:22:47"/>
			<leg mode="pt"/>
			<activity type="shop" x="296356.46" y="2766793.71" end_time="19:04:59"/>
			<leg mode="pt"/>
			<activity type="home" x="303804.19" y="2770590.71"/>
		</plan>
	</person>
	<!-- pt_agent_09 (pt) -->
	<person id="pt_agent_09">
		<plan selected="no">
			<activity type="home" x="302953.21" y="2775206.77" end_time="06:37:26"/>
			<leg mode="pt"/>
			<activity type="leisure" x="305421.56" y="2772105.34" end_time="08:35:08"/>
			<leg mode="pt"/>
			<activity type="shop" x="306784.31" y="2769959.91" end_time="10:22:29"/>
			<leg mode="pt"/>
			<activity type="work" x="294035.05" y="2762173.24" end_time="18:38:48"/>
			<leg mode="pt"/>
			<activity type="home" x="302953.21" y="2775206.77"/>
		</plan>
		<plan selected="yes">
			<activity type="home" x="302953.21" y="2775206.77" end_time="06:37:26"/>
			<leg mode="pt"/>
			<activity type="leisure" x="305421.56" y="2772105.34" end_time="08:35:08"/>
			<leg mode="pt"/>
			<activity type="shop" x="306784.31" y="2769959.91" end_time="10:22:29"/>
			<leg mode="pt"/>
			<activity type="work" x="294035.05" y="2762173.24" end_time="18:38:48"/>
			<leg mode="pt"/>
			<activity type="home" x="302953.21" y="2775206.77"/>
		</plan>
	</person>
	<!-- pt_agent_10 (pt) -->
	<person id="pt_agent_10">
		<plan selected="no">
			<activity type="home" x="303763.41" y="2771719.82" end_time="07:00:56"/>
			<leg mode="pt"/>
			<activity type="education" x="301278.16" y="2770528.6" end_time="13:05:22"/>
			<leg mode="pt"/>
			<activity type="shop" x="294035.05" y="2762173.24" end_time="14:50:42"/>
			<leg mode="pt"/>
			<activity type="home" x="303763.41" y="2771719.82"/>
		</plan>
		<plan selected="yes">
			<activity type="home" x="303763.41" y="2771719.82" end_time="07:00:56"/>
			<leg mode="pt"/>
			<activity type="education" x="301278.16" y="2770528.6" end_time="13:05:22"/>
			<leg mode="pt"/>
			<activity type="shop" x="294035.05" y="2762173.24" end_time="14:50:42"/>
			<leg mode="pt"/>
			<activity type="home" x="303763.41" y="2771719.82"/>
		</plan>
	</person>
	<!-- pt_agent_11 (pt) -->
	<person id="pt_agent_11">
		<plan selected="no">
			<activity type="home" x="305421.56" y="2772105.34" end_time="06:37:11"/>
			<leg mode="pt"/>
			<activity type="leisure" x="305421.56" y="2772105.34" end_time="08:35:09"/>
			<leg mode="pt"/>
			<activity type="education" x="302208.73" y="2771006.76" end_time="14:48:07"/>
			<leg mode="pt"/>
			<activity type="home" x="305421.56" y="2772105.34"/>
		</plan>
		<plan selected="yes">
			<activity type="home" x="305421.56" y="2772105.34" end_time="06:37:11"/>
			<leg mode="pt"/>
			<activity type="leisure" x="305421.56" y="2772105.34" end_time="08:35:09"/>
			<leg mode="pt"/>
			<activity type="education" x="302208.73" y="2771006.76" end_time="14:48:07"/>
			<leg mode="pt"/>
			<activity type="home" x="305421.56" y="2772105.34"/>
		</plan>
	</person>
	<!-- pt_agent_12 (pt) -->
	<person id="pt_agent_12">
		<plan selected="no">
			<activity type="home" x="307533.02" y="2769486.82" end_time="06:24:44"/>
			<leg mode="pt"/>
			<activity type="shop" x="303763.41" y="2771719.82" end_time="07:57:52"/>
			<leg mode="pt"/>
			<activity type="work" x="308143.01" y="2770426.5" end_time="16:16:30"/>
			<leg mode="pt"/>
			<activity type="leisure" x="304996.85" y="2770512.5" end_time="18:35:08"/>
			<leg mode="pt"/>
			<activity type="home" x="307533.02" y="2769486.82"/>
		</plan>
		<plan selected="yes">
			<activity type="home" x="307533.02" y="2769486.82" end_time="06:24:44"/>
			<leg mode="pt"/>
			<activity type="shop" x="303763.41" y="2771719.82" end_time="07:57:52"/>
			<leg mode="pt"/>
			<activity type="work" x="308143.01" y="2770426.5" end_time="16:16:30"/>
			<leg mode="pt"/>
			<activity type="leisure" x="304996.85" y="2770512.5" end_time="18:35:08"/>
			<leg mode="pt"/>
			<activity type="home" x="307533.02" y="2769486.82"/>
		</plan>
	</person>
	<!-- pt_agent_13 (pt) -->
	<person id="pt_agent_13">
		<plan selected="no">
			<activity type="home" x="308143.01" y="2770426.5" end_time="07:01:03"/>
			<leg mode="pt"/>
			<activity type="work" x="302208.73" y="2771006.76" end_time="14:57:37"/>
			<leg mode="pt"/>
			<activity type="education" x="304996.85" y="2770512.5" end_time="21:13:08"/>
			<leg mode="pt"/>
			<activity type="shop" x="305421.56" y="2772105.34" end_time="22:59:59"/>
			<leg mode="pt"/>
			<activity type="home" x="308143.01" y="2770426.5"/>
		</plan>
		<plan selected="yes">
			<activity type="home" x="308143.01" y="2770426.5" end_time="07:01:03"/>
			<leg mode="pt"/>
			<activity type="work" x="302208.73" y="2771006.76" end_time="14:57:37"/>
			<leg mode="pt"/>
			<activity type="education" x="304996.85" y="2770512.5" end_time="21:13:08"/>
			<leg mode="pt"/>
			<activity type="shop" x="305421.56" y="2772105.34" end_time="22:59:59"/>
			<leg mode="pt"/>
			<activity type="home" x="308143.01" y="2770426.5"/>
		</plan>
	</person>
	<!-- pt_agent_14 (pt) -->
	<person id="pt_agent_14">
		<plan selected="no">
			<activity type="home" x="306784.31" y="2769959.91" end_time="06:15:28"/>
			<leg mode="pt"/>
			<activity type="shop" x="308143.01" y="2770426.5" end_time="07:47:59"/>
			<leg mode="pt"/>
			<activity type="work" x="294035.05" y="2762173.24" end_time="15:59:19"/>
			<leg mode="pt"/>
			<activity type="leisure" x="302208.73" y="2771006.76" end_time="18:11:44"/>
			<leg mode="pt"/>
			<activity type="home" x="306784.31" y="2769959.91"/>
		</plan>
		<plan selected="yes">
			<activity type="home" x="306784.31" y="2769959.91" end_time="06:15:28"/>
			<leg mode="pt"/>
			<activity type="shop" x="308143.01" y="2770426.5" end_time="07:47:59"/>
			<leg mode="pt"/>
			<activity type="work" x="294035.05" y="2762173.24" end_time="15:59:19"/>
			<leg mode="pt"/>
			<activity type="leisure" x="302208.73" y="2771006.76" end_time="18:11:44"/>
			<leg mode="pt"/>
			<activity type="home" x="306784.31" y="2769959.91"/>
		</plan>
	</person>
	<!-- pt_agent_15 (pt) -->
	<person id="pt_agent_15">
		<plan selected="no">
			<activity type="home" x="305795.35" y="2770702.2" end_time="07:10:38"/>
			<leg mode="pt"/>
			<activity type="shop" x="305421.56" y="2772105.34" end_time="08:38:55"/>
			<leg mode="pt"/>
			<activity type="leisure" x="302208.73" y="2771006.76" end_time="10:58:11"/>
			<leg mode="pt"/>
			<activity type="work" x="302953.21" y="2775206.77" end_time="19:13:37"/>
			<leg mode="pt"/>
			<activity type="home" x="305795.35" y="2770702.2"/>
		</plan>
		<plan selected="yes">
			<activity type="home" x="305795.35" y="2770702.2" end_time="07:10:38"/>
			<leg mode="pt"/>
			<activity type="shop" x="305421.56" y="2772105.34" end_time="08:38:55"/>
			<leg mode="pt"/>
			<activity type="leisure" x="302208.73" y="2771006.76" end_time="10:58:11"/>
			<leg mode="pt"/>
			<activity type="work" x="302953.21" y="2775206.77" end_time="19:13:37"/>
			<leg mode="pt"/>
			<activity type="home" x="305795.35" y="2770702.2"/>
		</plan>
	</person>
	<!-- pt_agent_16 (pt) -->
	<person id="pt_agent_16">
		<plan selected="no">
			<activity type="home" x="294035.05" y="2762173.24" end_time="07:08:53"/>
			<leg mode="pt"/>
			<activity type="work" x="301278.16" y="2770528.6" end_time="15:05:23"/>
			<leg mode="pt"/>
			<activity type="leisure" x="308143.01" y="2770426.5" end_time="17:15:37"/>
			<leg mode="pt"/>
			<activity type="shop" x="304996.85" y="2770512.5" end_time="19:05:33"/>
			<leg mode="pt"/>
			<activity type="home" x="294035.05" y="2762173.24"/>
		</plan>
		<plan selected="yes">
			<activity type="home" x="294035.05" y="2762173.24" end_time="07:08:53"/>
			<leg mode="pt"/>
			<activity type="work" x="301278.16" y="2770528.6" end_time="15:05:23"/>
			<leg mode="pt"/>
			<activity type="leisure" x="308143.01" y="2770426.5" end_time="17:15:37"/>
			<leg mode="pt"/>
			<activity type="shop" x="304996.85" y="2770512.5" end_time="19:05:33"/>
			<leg mode="pt"/>
			<activity type="home" x="294035.05" y="2762173.24"/>
		</plan>
	</person>
	<!-- pt_agent_17 (pt) -->
	<person id="pt_agent_17">
		<plan selected="no">
			<activity type="home" x="296356.46" y="2766793.71" end_time="06:41:36"/>
			<leg mode="pt"/>
			<activity type="leisure" x="308143.01" y="2770426.5" end_time="08:40:46"/>
			<leg mode="pt"/>
			<activity type="shop" x="308143.01" y="2770426.5" end_time="10:27:55"/>
			<leg mode="pt"/>
			<activity type="work" x="302953.21" y="2775206.77" end_time="18:46:18"/>
			<leg mode="pt"/>
			<activity type="home" x="296356.46" y="2766793.71"/>
		</plan>
		<plan selected="yes">
			<activity type="home" x="296356.46" y="2766793.71" end_time="06:41:36"/>
			<leg mode="pt"/>
			<activity type="leisure" x="308143.01" y="2770426.5" end_time="08:40:46"/>
			<leg mode="pt"/>
			<activity type="shop" x="308143.01" y="2770426.5" end_time="10:27:55"/>
			<leg mode="pt"/>
			<activity type="work" x="302953.21" y="2775206.77" end_time="18:46:18"/>
			<leg mode="pt"/>
			<activity type="home" x="296356.46" y="2766793.71"/>
		</plan>
	</person>
	<!-- pt_agent_18 (pt) -->
	<person id="pt_agent_18">
		<plan selected="no">
			<activity type="home" x="300488.79" y="2769778.54" end_time="06:45:56"/>
			<leg mode="pt"/>
			<activity type="leisure" x="306784.31" y="2769959.91" end_time="08:44:48"/>
			<leg mode="pt"/>
			<activity type="work" x="301278.16" y="2770528.6" end_time="17:02:05"/>
			<leg mode="pt"/>
			<activity type="shop" x="301278.16" y="2770528.6" end_time="18:47:45"/>
			<leg mode="pt"/>
			<activity type="home" x="300488.79" y="2769778.54"/>
		</plan>
		<plan selected="yes">
			<activity type="home" x="300488.79" y="2769778.54" end_time="06:45:56"/>
			<leg mode="pt"/>
			<activity type="leisure" x="306784.31" y="2769959.91" end_time="08:44:48"/>
			<leg mode="pt"/>
			<activity type="work" x="301278.16" y="2770528.6" end_time="17:02:05"/>
			<leg mode="pt"/>
			<activity type="shop" x="301278.16" y="2770528.6" end_time="18:47:45"/>
			<leg mode="pt"/>
			<activity type="home" x="300488.79" y="2769778.54"/>
		</plan>
	</person>
	<!-- pt_agent_19 (pt) -->
	<person id="pt_agent_19">
		<plan selected="no">
			<activity type="home" x="301278.16" y="2770528.6" end_time="06:52:08"/>
			<leg mode="pt"/>
			<activity type="shop" x="308143.01" y="2770426.5" end_time="08:26:50"/>
			<leg mode="pt"/>
			<activity type="leisure" x="303804.19" y="2770590.71" end_time="10:37:19"/>
			<leg mode="pt"/>
			<activity type="work" x="302208.73" y="2771006.76" end_time="18:51:35"/>
			<leg mode="pt"/>
			<activity type="home" x="301278.16" y="2770528.6"/>
		</plan>
		<plan selected="yes">
			<activity type="home" x="301278.16" y="2770528.6" end_time="06:52:08"/>
			<leg mode="pt"/>
			<activity type="shop" x="308143.01" y="2770426.5" end_time="08:26:50"/>
			<leg mode="pt"/>
			<activity type="leisure" x="303804.19" y="2770590.71" end_time="10:37:19"/>
			<leg mode="pt"/>
			<activity type="work" x="302208.73" y="2771006.76" end_time="18:51:35"/>
			<leg mode="pt"/>
			<activity type="home" x="301278.16" y="2770528.6"/>
		</plan>
	</person>
	<!-- pt_agent_20 (pt) -->
	<person id="pt_agent_20">
		<plan selected="no">
			<activity type="home" x="302208.73" y="2771006.76" end_time="06:37:21"/>
			<leg mode="pt"/>
			<activity type="leisure" x="303804.19" y="2770590.71" end_time="08:32:39"/>
			<leg mode="pt"/>
			<activity type="work" x="302208.73" y="2771006.76" end_time="16:45:19"/>
			<leg mode="pt"/>
			<activity type="shop" x="294035.05" y="2762173.24" end_time="18:27:40"/>
			<leg mode="pt"/>
			<activity type="home" x="302208.73" y="2771006.76"/>
		</plan>
		<plan selected="yes">
			<activity type="home" x="302208.73" y="2771006.76" end_time="06:37:21"/>
			<leg mode="pt"/>
			<activity type="leisure" x="303804.19" y="2770590.71" end_time="08:32:39"/>
			<leg mode="pt"/>
			<activity type="work" x="302208.73" y="2771006.76" end_time="16:45:19"/>
			<leg mode="pt"/>
			<activity type="shop" x="294035.05" y="2762173.24" end_time="18:27:40"/>
			<leg mode="pt"/>
			<activity type="home" x="302208.73" y="2771006.76"/>
		</plan>
	</person>
	<!-- pt_transfer_agent_21 (pt) -->
	<person id="pt_transfer_agent_21">
		<plan selected="no">
			<activity type="home" x="304996.85" y="2770512.5" end_time="06:46:59"/>
			<leg mode="pt"/>
			<activity type="leisure" x="302208.73" y="2771006.76" end_time="08:47:13"/>
			<leg mode="pt"/>
			<activity type="work" x="306784.31" y="2769959.91" end_time="17:04:53"/>
			<leg mode="pt"/>
			<activity type="shop" x="303804.19" y="2770590.71" end_time="18:45:58"/>
			<leg mode="pt"/>
			<activity type="home" x="304996.85" y="2770512.5"/>
		</plan>
		<plan selected="yes">
			<activity type="home" x="304996.85" y="2770512.5" end_time="06:46:59"/>
			<leg mode="pt"/>
			<activity type="leisure" x="302208.73" y="2771006.76" end_time="08:47:13"/>
			<leg mode="pt"/>
			<activity type="work" x="306784.31" y="2769959.91" end_time="17:04:53"/>
			<leg mode="pt"/>
			<activity type="shop" x="303804.19" y="2770590.71" end_time="18:45:58"/>
			<leg mode="pt"/>
			<activity type="home" x="304996.85" y="2770512.5"/>
		</plan>
	</person>
	<!-- pt_transfer_agent_22 (pt) -->
	<person id="pt_transfer_agent_22">
		<plan selected="no">
			<activity type="home" x="305544.29" y="2770487.68" end_time="06:17:41"/>
			<leg mode="pt"/>
			<activity type="leisure" x="302208.73" y="2771006.76" end_time="08:13:26"/>
			<leg mode="pt"/>
			<activity type="education" x="300488.79" y="2769778.54" end_time="14:30:21"/>
			<leg mode="pt"/>
			<activity type="work" x="303804.19" y="2770590.71" end_time="22:40:44"/>
			<leg mode="pt"/>
			<activity type="home" x="305544.29" y="2770487.68"/>
		</plan>
		<plan selected="yes">
			<activity type="home" x="305544.29" y="2770487.68" end_time="06:17:41"/>
			<leg mode="pt"/>
			<activity type="leisure" x="302208.73" y="2771006.76" end_time="08:13:26"/>
			<leg mode="pt"/>
			<activity type="education" x="300488.79" y="2769778.54" end_time="14:30:21"/>
			<leg mode="pt"/>
			<activity type="work" x="303804.19" y="2770590.71" end_time="22:40:44"/>
			<leg mode="pt"/>
			<activity type="home" x="305544.29" y="2770487.68"/>
		</plan>
	</person>
	<!-- pt_transfer_agent_23 (pt) -->
	<person id="pt_transfer_agent_23">
		<plan selected="no">
			<activity type="home" x="303804.19" y="2770590.71" end_time="06:22:49"/>
			<leg mode="pt"/>
			<activity type="leisure" x="301278.16" y="2770528.6" end_time="08:19:10"/>
			<leg mode="pt"/>
			<activity type="shop" x="301278.16" y="2770528.6" end_time="10:01:03"/>
			<leg mode="pt"/>
			<activity type="work" x="307533.02" y="2769486.82" end_time="18:15:54"/>
			<leg mode="pt"/>
			<activity type="home" x="303804.19" y="2770590.71"/>
		</plan>
		<plan selected="yes">
			<activity type="home" x="303804.19" y="2770590.71" end_time="06:22:49"/>
			<leg mode="pt"/>
			<activity type="leisure" x="301278.16" y="2770528.6" end_time="08:19:10"/>
			<leg mode="pt"/>
			<activity type="shop" x="301278.16" y="2770528.6" end_time="10:01:03"/>
			<leg mode="pt"/>
			<activity type="work" x="307533.02" y="2769486.82" end_time="18:15:54"/>
			<leg mode="pt"/>
			<activity type="home" x="303804.19" y="2770590.71"/>
		</plan>
	</person>
	<!-- pt_transfer_agent_24 (pt) -->
	<person id="pt_transfer_agent_24">
		<plan selected="no">
			<activity type="home" x="302953.21" y="2775206.77" end_time="06:35:17"/>
			<leg mode="pt"/>
			<activity type="education" x="305421.56" y="2772105.34" end_time="12:32:41"/>
			<leg mode="pt"/>
			<activity type="leisure" x="296356.46" y="2766793.71" end_time="14:52:31"/>
			<leg mode="pt"/>
			<activity type="home" x="302953.21" y="2775206.77"/>
		</plan>
		<plan selected="yes">
			<activity type="home" x="302953.21" y="2775206.77" end_time="06:35:17"/>
			<leg mode="pt"/>
			<activity type="education" x="305421.56" y="2772105.34" end_time="12:32:41"/>
			<leg mode="pt"/>
			<activity type="leisure" x="296356.46" y="2766793.71" end_time="14:52:31"/>
			<leg mode="pt"/>
			<activity type="home" x="302953.21" y="2775206.77"/>
		</plan>
	</person>
	<!-- pt_transfer_agent_25 (pt) -->
	<person id="pt_transfer_agent_25">
		<plan selected="no">
			<activity type="home" x="303763.41" y="2771719.82" end_time="06:19:13"/>
			<leg mode="pt"/>
			<activity type="shop" x="305421.56" y="2772105.34" end_time="07:51:23"/>
			<leg mode="pt"/>
			<activity type="work" x="300488.79" y="2769778.54" end_time="16:07:58"/>
			<leg mode="pt"/>
			<activity type="education" x="303763.41" y="2771719.82" end_time="22:22:29"/>
			<leg mode="pt"/>
			<activity type="home" x="303763.41" y="2771719.82"/>
		</plan>
		<plan selected="yes">
			<activity type="home" x="303763.41" y="2771719.82" end_time="06:19:13"/>
			<leg mode="pt"/>
			<activity type="shop" x="305421.56" y="2772105.34" end_time="07:51:23"/>
			<leg mode="pt"/>
			<activity type="work" x="300488.79" y="2769778.54" end_time="16:07:58"/>
			<leg mode="pt"/>
			<activity type="education" x="303763.41" y="2771719.82" end_time="22:22:29"/>
			<leg mode="pt"/>
			<activity type="home" x="303763.41" y="2771719.82"/>
		</plan>
	</person>
	<!-- pt_transfer_agent_26 (pt) -->
	<person id="pt_transfer_agent_26">
		<plan selected="no">
			<activity type="home" x="305421.56" y="2772105.34" end_time="06:46:42"/>
			<leg mode="pt"/>
			<activity type="shop" x="303804.19" y="2770590.71" end_time="08:14:14"/>
			<leg mode="pt"/>
			<activity type="leisure" x="303763.41" y="2771719.82" end_time="10:27:05"/>
			<leg mode="pt"/>
			<activity type="work" x="303804.19" y="2770590.71" end_time="18:40:28"/>
			<leg mode="pt"/>
			<activity type="home" x="305421.56" y="2772105.34"/>
		</plan>
		<plan selected="yes">
			<activity type="home" x="305421.56" y="2772105.34" end_time="06:46:42"/>
			<leg mode="pt"/>
			<activity type="shop" x="303804.19" y="2770590.71" end_time="08:14:14"/>
			<leg mode="pt"/>
			<activity type="leisure" x="303763.41" y="2771719.82" end_time="10:27:05"/>
			<leg mode="pt"/>
			<activity type="work" x="303804.19" y="2770590.71" end_time="18:40:28"/>
			<leg mode="pt"/>
			<activity type="home" x="305421.56" y="2772105.34"/>
		</plan>
	</person>
	<!-- pt_transfer_agent_27 (pt) -->
	<person id="pt_transfer_agent_27">
		<plan selected="no">
			<activity type="home" x="307533.02" y="2769486.82" end_time="06:30:12"/>
			<leg mode="pt"/>
			<activity type="work" x="305544.29" y="2770487.68" end_time="14:26:08"/>
			<leg mode="pt"/>
			<activity type="shop" x="305544.29" y="2770487.68" end_time="16:06:59"/>
			<leg mode="pt"/>
			<activity type="education" x="301278.16" y="2770528.6" end_time="22:25:36"/>
			<leg mode="pt"/>
			<activity type="home" x="307533.02" y="2769486.82"/>
		</plan>
		<plan selected="yes">
			<activity type="home" x="307533.02" y="2769486.82" end_time="06:30:12"/>
			<leg mode="pt"/>
			<activity type="work" x="305544.29" y="2770487.68" end_time="14:26:08"/>
			<leg mode="pt"/>
			<activity type="shop" x="305544.29" y="2770487.68" end_time="16:06:59"/>
			<leg mode="pt"/>
			<activity type="education" x="301278.16" y="2770528.6" end_time="22:25:36"/>
			<leg mode="pt"/>
			<activity type="home" x="307533.02" y="2769486.82"/>
		</plan>
	</person>
	<!-- pt_transfer_agent_28 (pt) -->
	<person id="pt_transfer_agent_28">
		<plan selected="no">
			<activity type="home" x="308143.01" y="2770426.5" end_time="06:27:19"/>
			<leg mode="pt"/>
			<activity type="education" x="302953.21" y="2775206.77" end_time="12:25:59"/>
			<leg mode="pt"/>
			<activity type="work" x="305421.56" y="2772105.34" end_time="20:38:29"/>
			<leg mode="pt"/>
			<activity type="leisure" x="302953.21" y="2775206.77" end_time="22:56:38"/>
			<leg mode="pt"/>
			<activity type="home" x="308143.01" y="2770426.5"/>
		</plan>
		<plan selected="yes">
			<activity type="home" x="308143.01" y="2770426.5" end_time="06:27:19"/>
			<leg mode="pt"/>
			<activity type="education" x="302953.21" y="2775206.77" end_time="12:25:59"/>
			<leg mode="pt"/>
			<activity type="work" x="305421.56" y="2772105.34" end_time="20:38:29"/>
			<leg mode="pt"/>
			<activity type="leisure" x="302953.21" y="2775206.77" end_time="22:56:38"/>
			<leg mode="pt"/>
			<activity type="home" x="308143.01" y="2770426.5"/>
		</plan>
	</person>
	<!-- pt_transfer_agent_29 (pt) -->
	<person id="pt_transfer_agent_29">
		<plan selected="no">
			<activity type="home" x="306784.31" y="2769959.91" end_time="06:28:58"/>
			<leg mode="pt"/>
			<activity type="education" x="294035.05" y="2762173.24" end_time="12:33:29"/>
			<leg mode="pt"/>
			<activity type="work" x="301278.16" y="2770528.6" end_time="20:49:31"/>
			<leg mode="pt"/>
			<activity type="shop" x="305544.29" y="2770487.68" end_time="22:36:27"/>
			<leg mode="pt"/>
			<activity type="home" x="306784.31" y="2769959.91"/>
		</plan>
		<plan selected="yes">
			<activity type="home" x="306784.31" y="2769959.91" end_time="06:28:58"/>
			<leg mode="pt"/>
			<activity type="education" x="294035.05" y="2762173.24" end_time="12:33:29"/>
			<leg mode="pt"/>
			<activity type="work" x="301278.16" y="2770528.6" end_time="20:49:31"/>
			<leg mode="pt"/>
			<activity type="shop" x="305544.29" y="2770487.68" end_time="22:36:27"/>
			<leg mode="pt"/>
			<activity type="home" x="306784.31" y="2769959.91"/>
		</plan>
	</person>
	<!-- pt_transfer_agent_30 (pt) -->
	<person id="pt_transfer_agent_30">
		<plan selected="no">
			<activity type="home" x="305795.35" y="2770702.2" end_time="07:14:36"/>
			<leg mode="pt"/>
			<activity type="shop" x="305795.35" y="2770702.2" end_time="08:47:10"/>
			<leg mode="pt"/>
			<activity type="education" x="302208.73" y="2771006.76" end_time="15:04:02"/>
			<leg mode="pt"/>
			<activity type="leisure" x="305421.56" y="2772105.34" end_time="17:16:11"/>
			<leg mode="pt"/>
			<activity type="home" x="305795.35" y="2770702.2"/>
		</plan>
		<plan selected="yes">
			<activity type="home" x="305795.35" y="2770702.2" end_time="07:14:36"/>
			<leg mode="pt"/>
			<activity type="shop" x="305795.35" y="2770702.2" end_time="08:47:10"/>
			<leg mode="pt"/>
			<activity type="education" x="302208.73" y="2771006.76" end_time="15:04:02"/>
			<leg mode="pt"/>