<?xml version="1.0" encoding="UTF-8"?>

<vehicleDefinitions xmlns="http://www.matsim.org/files/dtd" xmlns:xsi="http://www.w3.org/2001/XMLSchema-instance" xsi:schemaLocation="http://www.matsim.org/files/dtd http://www.matsim.org/files/dtd/vehicleDefinitions_v2.0.xsd">

	<!-- Subway vehicle type for PT transit -->
	<vehicleType id="Subway">
		<attributes>
			<attribute name="accessTimeInSecondsPerPerson" class="java.lang.Double">0.1</attribute>
			<attribute name="doorOperationMode" class="org.matsim.vehicles.VehicleType$DoorOperationMode">serial</attribute>
			<attribute name="egressTimeInSecondsPerPerson" class="java.lang.Double">0.1</attribute>
		</attributes>
		<capacity seats="300" standingRoomInPersons="0">

		</capacity>
		<length meter="30.0"/>
		<width meter="2.45"/>
		<costInformation>

		</costInformation>
		<passengerCarEquivalents pce="4.4"/>
		<networkMode networkMode="subway"/>
		<flowEfficiencyFactor factor="1.0"/>
	</vehicleType>

	<!-- PT vehicle type for public transit passengers -->
	<vehicleType id="pt">
		<capacity seats="1" standingRoomInPersons="0"/>
		<length meter="7.5"/>
		<width meter="1.0"/>
		<passengerCarEquivalents pce="1.0"/>
		<networkMode networkMode="pt"/>
		<flowEfficiencyFactor factor="1.0"/>
	</vehicleType>

	<!-- Car vehicle type for private cars -->
	<vehicleType id="car">
		<capacity seats="5" standingRoomInPersons="0"/>
		<length meter="7.5"/>
		<width meter="1.0"/>
		<passengerCarEquivalents pce="1.0"/>
		<networkMode networkMode="car"/>
		<flowEfficiencyFactor factor="1.0"/>
	</vehicleType>

	<vehicle id="veh_0_subway" type="Subway"/>
	<vehicle id="veh_1000_subway" type="Subway"/>
	<vehicle id="veh_1001_subway" type="Subway"/>
	<vehicle id="veh_1002_subway" type="Subway"/>
	<vehicle id="veh_1003_subway" type="Subway"/>
	<vehicle id="veh_1004_subway" type="Subway"/>
	<vehicle id="veh_1005_subway" type="Subway"/>
	<vehicle id="veh_1006_subway" type="Subway"/>
	<vehicle id="veh_1007_subway" type="Subway"/>
	<vehicle id="veh_1008_subway" type="Subway"/>
	<vehicle id="veh_1009_subway" type="Subway"/>
	<vehicle id="veh_100_subway" type="Subway"/>
	<vehicle id="veh_1010_subway" type="Subway"/>
	<vehicle id="veh_1011_subway" type="Subway"/>
	<vehicle id="veh_1012_subway" type="Subway"/>
	<vehicle id="veh_1013_subway" type="Subway"/>
	<vehicle id="veh_1014_subway" type="Subway"/>
	<vehicle id="veh_1015_subway" type="Subway"/>
	<vehicle id="veh_1016_subway" type="Subway"/>
	<vehicle id="veh_1017_subway" type="Subway"/>
	<vehicle id="veh_1018_subway" type="Subway"/>
	<vehicle id="veh_1019_subway" type="Subway"/>
	<vehicle id="veh_101_subway" type="Subway"/>
	<vehicle id="veh_1020_subway" type="Subway"/>
	<vehicle id="veh_1021_subway" type="Subway"/>
	<vehicle id="veh_1022_subway" type="Subway"/>
	<vehicle id="veh_1023_subway" type="Subway"/>
	<vehicle id="veh_1024_subway" type="Subway"/>
	<vehicle id="veh_1025_subway" type="Subway"/>
	<vehicle id="veh_1026_subway" type="Subway"/>
	<vehicle id="veh_1027_subway" type="Subway"/>
	<vehicle id="veh_1028_subway" type="Subway"/>
	<vehicle id="veh_1029_subway" type="Subway"/>
	<vehicle id="veh_102_subway" type="Subway"/>
	<vehicle id="veh_1030_subway" type="Subway"/>
	<vehicle id="veh_1031_subway" type="Subway"/>
	<vehicle id="veh_1032_subway" type="Subway"/>
	<vehicle id="veh_1033_subway" type="Subway"/>
	<vehicle id="veh_1034_subway" type="Subway"/>
	<vehicle id="veh_1035_subway" type="Subway"/>
	<vehicle id="veh_1036_subway" type="Subway"/>
	<vehicle id="veh_1037_subway" type="Subway"/>
	<vehicle id="veh_1038_subway" type="Subway"/>
	<vehicle id="veh_1039_subway" type="Subway"/>
	<vehicle id="veh_103_subway" type="Subway"/>
	<vehicle id="veh_1040_subway" type="Subway"/>
	<vehicle id="veh_1041_subway" type="Subway"/>
	<vehicle id="veh_1042_subway" type="Subway"/>
	<vehicle id="veh_1043_subway" type="Subway"/>
	<vehicle id="veh_1044_subway" type="Subway"/>
	<vehicle id="veh_1045_subway" type="Subway"/>
	<vehicle id="veh_1046_subway" type="Subway"/>
	<vehicle id="veh_1047_subway" type="Subway"/>
	<vehicle id="veh_1048_subway" type="Subway"/>
	<vehicle id="veh_1049_subway" type="Subway"/>
	<vehicle id="veh_104_subway" type="Subway"/>
	<vehicle id="veh_1050_subway" type="Subway"/>
	<vehicle id="veh_1051_subway" type="Subway"/>
	<vehicle id="veh_1052_subway" type="Subway"/>
	<vehicle id="veh_1053_subway" type="Subway"/>
	<vehicle id="veh_1054_subway" type="Subway"/>
	<vehicle id="veh_1055_subway" type="Subway"/>
	<vehicle id="veh_1056_subway" type="Subway"/>
	<vehicle id="veh_1057_subway" type="Subway"/>
	<vehicle id="veh_1058_subway" type="Subway"/>
	<vehicle id="veh_1059_subway" type="Subway"/>
	<vehicle id="veh_105_subway" type="Subway"/>
	<vehicle id="veh_1060_subway" type="Subway"/>
	<vehicle id="veh_1061_subway" type="Subway"/>
	<vehicle id="veh_1062_subway" type="Subway"/>
	<vehicle id="veh_1063_subway" type="Subway"/>
	<vehicle id="veh_1064_subway" type="Subway"/>
	<vehicle id="veh_1065_subway" type="Subway"/>
	<vehicle id="veh_1066_subway" type="Subway"/>
	<vehicle id="veh_1067_subway" type="Subway"/>
	<vehicle id="veh_1068_subway" type="Subway"/>
	<vehicle id="veh_1069_subway" type="Subway"/>
	<vehicle id="veh_106_subway" type="Subway"/>
	<vehicle id="veh_1070_subway" type="Subway"/>
	<vehicle id="veh_1071_subway" type="Subway"/>
	<vehicle id="veh_1072_subway" type="Subway"/>
	<vehicle id="veh_1073_subway" type="Subway"/>
	<vehicle id="veh_1074_subway" type="Subway"/>
	<vehicle id="veh_1075_subway" type="Subway"/>
	<vehicle id="veh_1076_subway" type="Subway"/>
	<vehicle id="veh_1077_subway" type="Subway"/>
	<vehicle id="veh_1078_subway" type="Subway"/>
	<vehicle id="veh_1079_subway" type="Subway"/>
	<vehicle id="veh_107_subway" type="Subway"/>
	<vehicle id="veh_1080_subway" type="Subway"/>
	<vehicle id="veh_1081_subway" type="Subway"/>
	<vehicle id="veh_1082_subway" type="Subway"/>
	<vehicle id="veh_1083_subway" type="Subway"/>
	<vehicle id="veh_1084_subway" type="Subway"/>
	<vehicle id="veh_1085_subway" type="Subway"/>
	<vehicle id="veh_1086_subway" type="Subway"/>
	<vehicle id="veh_1087_subway" type="Subway"/>
	<vehicle id="veh_1088_subway" type="Subway"/>
	<vehicle id="veh_1089_subway" type="Subway"/>
	<vehicle id="veh_108_subway" type="Subway"/>
	<vehicle id="veh_1090_subway" type="Subway"/>
	<vehicle id="veh_1091_subway" type="Subway"/>
	<vehicle id="veh_1092_subway" type="Subway"/>
	<vehicle id="veh_1093_subway" type="Subway"/>
	<vehicle id="veh_1094_subway" type="Subway"/>
	<vehicle id="veh_1095_subway" type="Subway"/>
	<vehicle id="veh_1096_subway" type="Subway"/>
	<vehicle id="veh_1097_subway" type="Subway"/>
	<vehicle id="veh_1098_subway" type="Subway"/>
	<vehicle id="veh_1099_subway" type="Subway"/>
	<vehicle id="veh_109_subway" type="Subway"/>
	<vehicle id="veh_10_subway" type="Subway"/>
	<vehicle id="veh_1100_subway" type="Subway"/>
	<vehicle id="veh_1101_subway" type="Subway"/>
	<vehicle id="veh_1102_subway" type="Subway"/>
	<vehicle id="veh_1103_subway" type="Subway"/>
	<vehicle id="veh_1104_subway" type="Subway"/>
	<vehicle id="veh_1105_subway" type="Subway"/>
	<vehicle id="veh_1106_subway" type="Subway"/>
	<vehicle id="veh_1107_subway" type="Subway"/>
	<vehicle id="veh_1108_subway" type="Subway"/>
	<vehicle id="veh_1109_subway" type="Subway"/>
	<vehicle id="veh_110_subway" type="Subway"/>
	<vehicle id="veh_1110_subway" type="Subway"/>
	<vehicle id="veh_1111_subway" type="Subway"/>
	<vehicle id="veh_1112_subway" type="Subway"/>
	<vehicle id="veh_1113_subway" type="Subway"/>
	<vehicle id="veh_1114_subway" type="Subway"/>
	<vehicle id="veh_1115_subway" type="Subway"/>
	<vehicle id="veh_1116_subway" type="Subway"/>
	<vehicle id="veh_1117_subway" type="Subway"/>
	<vehicle id="veh_1118_subway" type="Subway"/>
	<vehicle id="veh_1119_subway" type="Subway"/>
	<vehicle id="veh_111_subway" type="Subway"/>
	<vehicle id="veh_1120_subway" type="Subway"/>
	<vehicle id="veh_1121_subway" type="Subway"/>
	<vehicle id="veh_1122_subway" type="Subway"/>
	<vehicle id="veh_1123_subway" type="Subway"/>
	<vehicle id="veh_1124_subway" type="Subway"/>
	<vehicle id="veh_1125_subway" type="Subway"/>
	<vehicle id="veh_1126_subway" type="Subway"/>
	<vehicle id="veh_1127_subway" type="Subway"/>
	<vehicle id="veh_1128_subway" type="Subway"/>
	<vehicle id="veh_1129_subway" type="Subway"/>
	<vehicle id="veh_112_subway" type="Subway"/>
	<vehicle id="veh_1130_subway" type="Subway"/>
	<vehicle id="veh_1131_subway" type="Subway"/>
	<vehicle id="veh_1132_subway" type="Subway"/>
	<vehicle id="veh_1133_subway" type="Subway"/>
	<vehicle id="veh_1134_subway" type="Subway"/>
	<vehicle id="veh_1135_subway" type="Subway"/>
	<vehicle id="veh_1136_subway" type="Subway"/>
	<vehicle id="veh_1137_subway" type="Subway"/>
	<vehicle id="veh_1138_subway" type="Subway"/>
	<vehicle id="veh_1139_subway" type="Subway"/>
	<vehicle id="veh_113_subway" type="Subway"/>
	<vehicle id="veh_1140_subway" type="Subway"/>
	<vehicle id="veh_1141_subway" type="Subway"/>
	<vehicle id="veh_1142_subway" type="Subway"/>
	<vehicle id="veh_1143_subway" type="Subway"/>
	<vehicle id="veh_1144_subway" type="Subway"/>
	<vehicle id="veh_1145_subway" type="Subway"/>
	<vehicle id="veh_1146_subway" type="Subway"/>
	<vehicle id="veh_1147_subway" type="Subway"/>
	<vehicle id="veh_1148_subway" type="Subway"/>
	<vehicle id="veh_1149_subway" type="Subway"/>
	<vehicle id="veh_114_subway" type="Subway"/>
	<vehicle id="veh_1150_subway" type="Subway"/>
	<vehicle id="veh_1151_subway" type="Subway"/>
	<vehicle id="veh_1152_subway" type="Subway"/>
	<vehicle id="veh_1153_subway" type="Subway"/>
	<vehicle id="veh_1154_subway" type="Subway"/>
	<vehicle id="veh_1155_subway" type="Subway"/>
	<vehicle id="veh_1156_subway" type="Subway"/>
	<vehicle id="veh_1157_subway" type="Subway"/>
	<vehicle id="veh_1158_subway" type="Subway"/>
	<vehicle id="veh_1159_subway" type="Subway"/>
	<vehicle id="veh_115_subway" type="Subway"/>
	<vehicle id="veh_1160_subway" type="Subway"/>
	<vehicle id="veh_1161_subway" type="Subway"/>
	<vehicle id="veh_1162_subway" type="Subway"/>
	<vehicle id="veh_1163_subway" type="Subway"/>
	<vehicle id="veh_1164_subway" type="Subway"/>
	<vehicle id="veh_1165_subway" type="Subway"/>
	<vehicle id="veh_1166_subway" type="Subway"/>
	<vehicle id="veh_1167_subway" type="Subway"/>
	<vehicle id="veh_1168_subway" type="Subway"/>
	<vehicle id="veh_1169_subway" type="Subway"/>
	<vehicle id="veh_116_subway" type="Subway"/>
	<vehicle id="veh_1170_subway" type="Subway"/>
	<vehicle id="veh_1171_subway" type="Subway"/>
	<vehicle id="veh_1172_subway" type="Subway"/>
	<vehicle id="veh_1173_subway" type="Subway"/>
	<vehicle id="veh_1174_subway" type="Subway"/>
	<vehicle id="veh_1175_subway" type="Subway"/>
	<vehicle id="veh_1176_subway" type="Subway"/>
	<vehicle id="veh_1177_subway" type="Subway"/>
	<vehicle id="veh_1178_subway" type="Subway"/>
	<vehicle id="veh_1179_subway" type="Subway"/>
	<vehicle id="veh_117_subway" type="Subway"/>
	<vehicle id="veh_1180_subway" type="Subway"/>
	<vehicle id="veh_1181_subway" type="Subway"/>
	<vehicle id="veh_1182_subway" type="Subway"/>
	<vehicle id="veh_1183_subway" type="Subway"/>
	<vehicle id="veh_1184_subway" type="Subway"/>
	<vehicle id="veh_1185_subway" type="Subway"/>
	<vehicle id="veh_1186_subway" type="Subway"/>
	<vehicle id="veh_1187_subway" type="Subway"/>
	<vehicle id="veh_1188_subway" type="Subway"/>
	<vehicle id="veh_1189_subway" type="Subway"/>
	<vehicle id="veh_118_subway" type="Subway"/>
	<vehicle id="veh_1190_subway" type="Subway"/>
	<vehicle id="veh_1191_subway" type="Subway"/>
	<vehicle id="veh_1192_subway" type="Subway"/>
	<vehicle id="veh_1193_subway" type="Subway"/>
	<vehicle id="veh_1194_subway" type="Subway"/>
	<vehicle id="veh_1195_subway" type="Subway"/>
	<vehicle id="veh_1196_subway" type="Subway"/>
	<vehicle id="veh_1197_subway" type="Subway"/>
	<vehicle id="veh_1198_subway" type="Subway"/>
	<vehicle id="veh_1199_subway" type="Subway"/>
	<vehicle id="veh_119_subway" type="Subway"/>
	<vehicle id="veh_11_subway" type="Subway"/>
	<vehicle id="veh_1200_subway" type="Subway"/>
	<vehicle id="veh_1201_subway" type="Subway"/>
	<vehicle id="veh_1202_subway" type="Subway"/>
	<vehicle id="veh_1203_subway" type="Subway"/>
	<vehicle id="veh_1204_subway" type="Subway"/>
	<vehicle id="veh_1205_subway" type="Subway"/>
	<vehicle id="veh_1206_subway" type="Subway"/>
	<vehicle id="veh_1207_subway" type="Subway"/>
	<vehicle id="veh_1208_subway" type="Subway"/>
	<vehicle id="veh_1209_subway" type="Subway"/>
	<vehicle id="veh_120_subway" type="Subway"/>
	<vehicle id="veh_1210_subway" type="Subway"/>
	<vehicle id="veh_1211_subway" type="Subway"/>
	<vehicle id="veh_1212_subway" type="Subway"/>
	<vehicle id="veh_1213_subway" type="Subway"/>
	<vehicle id="veh_1214_subway" type="Subway"/>
	<vehicle id="veh_1215_subway" type="Subway"/>
	<vehicle id="veh_1216_subway" type="Subway"/>
	<vehicle id="veh_1217_subway" type="Subway"/>
	<vehicle id="veh_1218_subway" type="Subway"/>
	<vehicle id="veh_1219_subway" type="Subway"/>
	<vehicle id="veh_121_subway" type="Subway"/>
	<vehicle id="veh_1220_subway" type="Subway"/>
	<vehicle id="veh_1221_subway" type="Subway"/>
	<vehicle id="veh_1222_subway" type="Subway"/>
	<vehicle id="veh_1223_subway" type="Subway"/>
	<vehicle id="veh_1224_subway" type="Subway"/>
	<vehicle id="veh_1225_subway" type="Subway"/>
	<vehicle id="veh_1226_subway" type="Subway"/>
	<vehicle id="veh_1227_subway" type="Subway"/>
	<vehicle id="veh_1228_subway" type="Subway"/>
	<vehicle id="veh_1229_subway" type="Subway"/>
	<vehicle id="veh_122_subway" type="Subway"/>
	<vehicle id="veh_1230_subway" type="Subway"/>
	<vehicle id="veh_1231_subway" type="Subway"/>
	<vehicle id="veh_1232_subway" type="Subway"/>
	<vehicle id="veh_1233_subway" type="Subway"/>
	<vehicle id="veh_1234_subway" type="Subway"/>
	<vehicle id="veh_1235_subway" type="Subway"/>
	<vehicle id="veh_1236_subway" type="Subway"/>
	<vehicle id="veh_1237_subway" type="Subway"/>
	<vehicle id="veh_1238_subway" type="Subway"/>
	<vehicle id="veh_1239_subway" type="Subway"/>
	<vehicle id="veh_123_subway" type="Subway"/>
	<vehicle id="veh_1240_subway" type="Subway"/>
	<vehicle id="veh_1241_subway" type="Subway"/>
	<vehicle id="veh_1242_subway" type="Subway"/>
	<vehicle id="veh_1243_subway" type="Subway"/>
	<vehicle id="veh_1244_subway" type="Subway"/>
	<vehicle id="veh_1245_subway" type="Subway"/>
	<vehicle id="veh_1246_subway" type="Subway"/>
	<vehicle id="veh_1247_subway" type="Subway"/>
	<vehicle id="veh_1248_subway" type="Subway"/>
	<vehicle id="veh_1249_subway" type="Subway"/>
	<vehicle id="veh_124_subway" type="Subway"/>
	<vehicle id="veh_1250_subway" type="Subway"/>
	<vehicle id="veh_1251_subway" type="Subway"/>
	<vehicle id="veh_1252_subway" type="Subway"/>
	<vehicle id="veh_1253_subway" type="Subway"/>
	<vehicle id="veh_1254_subway" type="Subway"/>
	<vehicle id="veh_1255_subway" type="Subway"/>
	<vehicle id="veh_1256_subway" type="Subway"/>
	<vehicle id="veh_1257_subway" type="Subway"/>
	<vehicle id="veh_1258_subway" type="Subway"/>
	<vehicle id="veh_1259_subway" type="Subway"/>
	<vehicle id="veh_125_subway" type="Subway"/>
	<vehicle id="veh_1260_subway" type="Subway"/>
	<vehicle id="veh_1261_subway" type="Subway"/>
	<vehicle id="veh_1262_subway" type="Subway"/>
	<vehicle id="veh_1263_subway" type="Subway"/>
	<vehicle id="veh_1264_subway" type="Subway"/>
	<vehicle id="veh_1265_subway" type="Subway"/>
	<vehicle id="veh_1266_subway" type="Subway"/>
	<vehicle id="veh_1267_subway" type="Subway"/>
	<vehicle id="veh_1268_subway" type="Subway"/>
	<vehicle id="veh_1269_subway" type="Subway"/>
	<vehicle id="veh_126_subway" type="Subway"/>
	<vehicle id="veh_1270_subway" type="Subway"/>
	<vehicle id="veh_1271_subway" type="Subway"/>
	<vehicle id="veh_1272_subway" type="Subway"/>
	<vehicle id="veh_1273_subway" type="Subway"/>
	<vehicle id="veh_1274_subway" type="Subway"/>
	<vehicle id="veh_1275_subway" type="Subway"/>
	<vehicle id="veh_1276_subway" type="Subway"/>
	<vehicle id="veh_1277_subway" type="Subway"/>
	<vehicle id="veh_1278_subway" type="Subway"/>
	<vehicle id="veh_1279_subway" type="Subway"/>
	<vehicle id="veh_127_subway" type="Subway"/>
	<vehicle id="veh_1280_subway" type="Subway"/>
	<vehicle id="veh_1281_subway" type="Subway"/>
	<vehicle id="veh_1282_subway" type="Subway"/>
	<vehicle id="veh_1283_subway" type="Subway"/>
	<vehicle id="veh_1284_subway" type="Subway"/>
	<vehicle id="veh_1285_subway" type="Subway"/>
	<vehicle id="veh_1286_subway" type="Subway"/>
	<vehicle id="veh_1287_subway" type="Subway"/>
	<vehicle id="veh_1288_subway" type="Subway"/>
	<vehicle id="veh_1289_subway" type="Subway"/>
	<vehicle id="veh_128_subway" type="Subway"/>
	<vehicle id="veh_1290_subway" type="Subway"/>
	<vehicle id="veh_1291_subway" type="Subway"/>
	<vehicle id="veh_1292_subway" type="Subway"/>
	<vehicle id="veh_1293_subway" type="Subway"/>
	<vehicle id="veh_1294_subway" type="Subway"/>
	<vehicle id="veh_1295_subway" type="Subway"/>
	<vehicle id="veh_1296_subway" type="Subway"/>
	<vehicle id="veh_1297_subway" type="Subway"/>
	<vehicle id="veh_1298_subway" type="Subway"/>
	<vehicle id="veh_1299_subway" type="Subway"/>
	<vehicle id="veh_129_subway" type="Subway"/>
	<vehicle id="veh_12_subway" type="Subway"/>
	<vehicle id="veh_1300_subway" type="Subway"/>
	<vehicle id="veh_1301_subway" type="Subway"/>
	<vehicle id="veh_1302_subway" type="Subway"/>
	<vehicle id="veh_1303_subway" type="Subway"/>
	<vehicle id="veh_1304_subway" type="Subway"/>
	<vehicle id="veh_1305_subway" type="Subway"/>
	<vehicle id="veh_1306_subway" type="Subway"/>
	<vehicle id="veh_1307_subway" type="Subway"/>
	<vehicle id="veh_1308_subway" type="Subway"/>
	<vehicle id="veh_1309_subway" type="Subway"/>
	<vehicle id="veh_130_subway" type="Subway"/>
	<vehicle id="veh_1310_subway" type="Subway"/>
	<vehicle id="veh_1311_subway" type="Subway"/>
	<vehicle id="veh_1312_subway" type="Subway"/>
	<vehicle id="veh_1313_subway" type="Subway"/>
	<vehicle id="veh_1314_subway" type="Subway"/>
	<vehicle id="veh_1315_subway" type="Subway"/>
	<vehicle id="veh_1316_subway" type="Subway"/>
	<vehicle id="veh_1317_subway" type="Subway"/>
	<vehicle id="veh_1318_subway" type="Subway"/>
	<vehicle id="veh_1319_subway" type="Subway"/>
	<vehicle id="veh_131_subway" type="Subway"/>
	<vehicle id="veh_1320_subway" type="Subway"/>
	<vehicle id="veh_1321_subway" type="Subway"/>
	<vehicle id="veh_1322_subway" type="Subway"/>
	<vehicle id="veh_1323_subway" type="Subway"/>
	<vehicle id="veh_1324_subway" type="Subway"/>
	<vehicle id="veh_1325_subway" type="Subway"/>
	<vehicle id="veh_1326_subway" type="Subway"/>
	<vehicle id="veh_1327_subway" type="Subway"/>
	<vehicle id="veh_1328_subway" type="Subway"/>
	<vehicle id="veh_1329_subway" type="Subway"/>
	<vehicle id="veh_132_subway" type="Subway"/>
	<vehicle id="veh_1330_subway" type="Subway"/>
	<vehicle id="veh_1331_subway" type="Subway"/>
	<vehicle id="veh_1332_subway" type="Subway"/>
	<vehicle id="veh_1333_subway" type="Subway"/>
	<vehicle id="veh_1334_subway" type="Subway"/>
	<vehicle id="veh_1335_subway" type="Subway"/>
	<vehicle id="veh_1336_subway" type="Subway"/>
	<vehicle id="veh_1337_subway" type="Subway"/>
	<vehicle id="veh_1338_subway" type="Subway"/>
	<vehicle id="veh_1339_subway" type="Subway"/>
	<vehicle id="veh_133_subway" type="Subway"/>
	<vehicle id="veh_1340_subway" type="Subway"/>
	<vehicle id="veh_1341_subway" type="Subway"/>
	<vehicle id="veh_1342_subway" type="Subway"/>
	<vehicle id="veh_1343_subway" type="Subway"/>
	<vehicle id="veh_1344_subway" type="Subway"/>
	<vehicle id="veh_1345_subway" type="Subway"/>
	<vehicle id="veh_1346_subway" type="Subway"/>
	<vehicle id="veh_1347_subway" type="Subway"/>
	<vehicle id="veh_1348_subway" type="Subway"/>
	<vehicle id="veh_1349_subway" type="Subway"/>
	<vehicle id="veh_134_subway" type="Subway"/>
	<vehicle id="veh_1350_subway" type="Subway"/>
	<vehicle id="veh_1351_subway" type="Subway"/>
	<vehicle id="veh_1352_subway" type="Subway"/>
	<vehicle id="veh_1353_subway" type="Subway"/>
	<vehicle id="veh_1354_subway" type="Subway"/>
	<vehicle id="veh_1355_subway" type="Subway"/>
	<vehicle id="veh_1356_subway" type="Subway"/>
	<vehicle id="veh_1357_subway" type="Subway"/>
	<vehicle id="veh_1358_subway" type="Subway"/>
	<vehicle id="veh_1359_subway" type="Subway"/>
	<vehicle id="veh_135_subway" type="Subway"/>
	<vehicle id="veh_1360_subway" type="Subway"/>
	<vehicle id="veh_1361_subway" type="Subway"/>
	<vehicle id="veh_1362_subway" type="Subway"/>
	<vehicle id="veh_1363_subway" type="Subway"/>
	<vehicle id="veh_1364_subway" type="Subway"/>
	<vehicle id="veh_1365_subway" type="Subway"/>
	<vehicle id="veh_1366_subway" type="Subway"/>
	<vehicle id="veh_1367_subway" type="Subway"/>
	<vehicle id="veh_1368_subway" type="Subway"/>
	<vehicle id="veh_1369_subway" type="Subway"/>
	<vehicle id="veh_136_subway" type="Subway"/>
	<vehicle id="veh_1370_subway" type="Subway"/>
	<vehicle id="veh_1371_subway" type="Subway"/>
	<vehicle id="veh_1372_subway" type="Subway"/>
	<vehicle id="veh_1373_subway" type="Subway"/>
	<vehicle id="veh_1374_subway" type="Subway"/>
	<vehicle id="veh_1375_subway" type="Subway"/>
	<vehicle id="veh_1376_subway" type="Subway"/>
	<vehicle id="veh_1377_subway" type="Subway"/>
	<vehicle id="veh_1378_subway" type="Subway"/>
	<vehicle id="veh_1379_subway" type="Subway"/>
	<vehicle id="veh_137_subway" type="Subway"/>
	<vehicle id="veh_1380_subway" type="Subway"/>
	<vehicle id="veh_1381_subway" type="Subway"/>
	<vehicle id="veh_1382_subway" type="Subway"/>
	<vehicle id="veh_1383_subway" type="Subway"/>
	<vehicle id="veh_1384_subway" type="Subway"/>
	<vehicle id="veh_1385_subway" type="Subway"/>
	<vehicle id="veh_1386_subway" type="Subway"/>
	<vehicle id="veh_1387_subway" type="Subway"/>
	<vehicle id="veh_1388_subway" type="Subway"/>
	<vehicle id="veh_1389_subway" type="Subway"/>
	<vehicle id="veh_138_subway" type="Subway"/>
	<vehicle id="veh_1390_subway" type="Subway"/>
	<vehicle id="veh_1391_subway" type="Subway"/>
	<vehicle id="veh_1392_subway" type="Subway"/>
	<vehicle id="veh_1393_subway" type="Subway"/>
	<vehicle id="veh_1394_subway" type="Subway"/>
	<vehicle id="veh_1395_subway" type="Subway"/>
	<vehicle id="veh_1396_subway" type="Subway"/>
	<vehicle id="veh_1397_subway" type="Subway"/>
	<vehicle id="veh_1398_subway" type="Subway"/>
	<vehicle id="veh_1399_subway" type="Subway"/>
	<vehicle id="veh_139_subway" type="Subway"/>
	<vehicle id="veh_13_subway" type="Subway"/>
	<vehicle id="veh_1400_subway" type="Subway"/>
	<vehicle id="veh_1401_subway" type="Subway"/>
	<vehicle id="veh_1402_subway" type="Subway"/>
	<vehicle id="veh_1403_subway" type="Subway"/>
	<vehicle id="veh_1404_subway" type="Subway"/>
	<vehicle id="veh_1405_subway" type="Subway"/>
	<vehicle id="veh_1406_subway" type="Subway"/>
	<vehicle id="veh_1407_subway" type="Subway"/>
	<vehicle id="veh_1408_subway" type="Subway"/>
	<vehicle id="veh_1409_subway" type="Subway"/>
	<vehicle id="veh_140_subway" type="Subway"/>
	<vehicle id="veh_1410_subway" type="Subway"/>
	<vehicle id="veh_1411_subway" type="Subway"/>
	<vehicle id="veh_1412_subway" type="Subway"/>
	<vehicle id="veh_1413_subway" type="Subway"/>
	<vehicle id="veh_1414_subway" type="Subway"/>
	<vehicle id="veh_1415_subway" type="Subway"/>
	<vehicle id="veh_1416_subway" type="Subway"/>
	<vehicle id="veh_1417_subway" type="Subway"/>
	<vehicle id="veh_1418_subway" type="Subway"/>
	<vehicle id="veh_1419_subway" type="Subway"/>
	<vehicle id="veh_141_subway" type="Subway"/>
	<vehicle id="veh_1420_subway" type="Subway"/>
	<vehicle id="veh_1421_subway" type="Subway"/>
	<vehicle id="veh_1422_subway" type="Subway"/>
	<vehicle id="veh_1423_subway" type="Subway"/>
	<vehicle id="veh_1424_subway" type="Subway"/>
	<vehicle id="veh_1425_subway" type="Subway"/>
	<vehicle id="veh_1426_subway" type="Subway"/>
	<vehicle id="veh_1427_subway" type="Subway"/>
	<vehicle id="veh_1428_subway" type="Subway"/>
	<vehicle id="veh_1429_subway" type="Subway"/>
	<vehicle id="veh_142_subway" type="Subway"/>
	<vehicle id="veh_1430_subway" type="Subway"/>
	<vehicle id="veh_1431_subway" type="Subway"/>
	<vehicle id="veh_1432_subway" type="Subway"/>
	<vehicle id="veh_1433_subway" type="Subway"/>
	<vehicle id="veh_1434_subway" type="Subway"/>
	<vehicle id="veh_1435_subway" type="Subway"/>
	<vehicle id="veh_1436_subway" type="Subway"/>
	<vehicle id="veh_1437_subway" type="Subway"/>
	<vehicle id="veh_1438_subway" type="Subway"/>
	<vehicle id="veh_1439_subway" type="Subway"/>
	<vehicle id="veh_143_subway" type="Subway"/>
	<vehicle id="veh_1440_subway" type="Subway"/>
	<vehicle id="veh_1441_subway" type="Subway"/>
	<vehicle id="veh_1442_subway" type="Subway"/>
	<vehicle id="veh_1443_subway" type="Subway"/>
	<vehicle id="veh_1444_subway" type="Subway"/>
	<vehicle id="veh_1445_subway" type="Subway"/>
	<vehicle id="veh_1446_subway" type="Subway"/>
	<vehicle id="veh_1447_subway" type="Subway"/>
	<vehicle id="veh_1448_subway" type="Subway"/>
	<vehicle id="veh_1449_subway" type="Subway"/>
	<vehicle id="veh_144_subway" type="Subway"/>
	<vehicle id="veh_1450_subway" type="Subway"/>
	<vehicle id="veh_1451_subway" type="Subway"/>
	<vehicle id="veh_1452_subway" type="Subway"/>
	<vehicle id="veh_1453_subway" type="Subway"/>
	<vehicle id="veh_1454_subway" type="Subway"/>
	<vehicle id="veh_1455_subway" type="Subway"/>
	<vehicle id="veh_1456_subway" type="Subway"/>
	<vehicle id="veh_1457_subway" type="Subway"/>
	<vehicle id="veh_1458_subway" type="Subway"/>
	<vehicle id="veh_1459_subway" type="Subway"/>
	<vehicle id="veh_145_subway" type="Subway"/>
	<vehicle id="veh_1460_subway" type="Subway"/>
	<vehicle id="veh_1461_subway" type="Subway"/>
	<vehicle id="veh_1462_subway" type="Subway"/>
	<vehicle id="veh_1463_subway" type="Subway"/>
	<vehicle id="veh_1464_subway" type="Subway"/>
	<vehicle id="veh_1465_subway" type="Subway"/>
	<vehicle id="veh_1466_subway" type="Subway"/>
	<vehicle id="veh_1467_subway" type="Subway"/>
	<vehicle id="veh_1468_subway" type="Subway"/>
	<vehicle id="veh_1469_subway" type="Subway"/>
	<vehicle id="veh_146_subway" type="Subway"/>
	<vehicle id="veh_1470_subway" type="Subway"/>
	<vehicle id="veh_1471_subway" type="Subway"/>
	<vehicle id="veh_1472_subway" type="Subway"/>
	<vehicle id="veh_1473_subway" type="Subway"/>
	<vehicle id="veh_1474_subway" type="Subway"/>
	<vehicle id="veh_1475_subway" type="Subway"/>
	<vehicle id="veh_1476_subway" type="Subway"/>
	<vehicle id="veh_1477_subway" type="Subway"/>
	<vehicle id="veh_1478_subway" type="Subway"/>
	<vehicle id="veh_1479_subway" type="Subway"/>
	<vehicle id="veh_147_subway" type="Subway"/>
	<vehicle id="veh_1480_subway" type="Subway"/>
	<vehicle id="veh_1481_subway" type="Subway"/>
	<vehicle id="veh_1482_subway" type="Subway"/>
	<vehicle id="veh_1483_subway" type="Subway"/>
	<vehicle id="veh_1484_subway" type="Subway"/>
	<vehicle id="veh_1485_subway" type="Subway"/>
	<vehicle id="veh_1486_subway" type="Subway"/>
	<vehicle id="veh_1487_subway" type="Subway"/>
	<vehicle id="veh_1488_subway" type="Subway"/>
	<vehicle id="veh_1489_subway" type="Subway"/>
	<vehicle id="veh_148_subway" type="Subway"/>
	<vehicle id="veh_1490_subway" type="Subway"/>
	<vehicle id="veh_1491_subway" type="Subway"/>
	<vehicle id="veh_1492_subway" type="Subway"/>
	<vehicle id="veh_1493_subway" type="Subway"/>
	<vehicle id="veh_1494_subway" type="Subway"/>
	<vehicle id="veh_1495_subway" type="Subway"/>
	<vehicle id="veh_1496_subway" type="Subway"/>
	<vehicle id="veh_1497_subway" type="Subway"/>
	<vehicle id="veh_1498_subway" type="Subway"/>
	<vehicle id="veh_1499_subway" type="Subway"/>
	<vehicle id="veh_149_subway" type="Subway"/>
	<vehicle id="veh_14_subway" type="Subway"/>
	<vehicle id="veh_1500_subway" type="Subway"/>
	<vehicle id="veh_1501_subway" type="Subway"/>
	<vehicle id="veh_1502_subway" type="Subway"/>
	<vehicle id="veh_1503_subway" type="Subway"/>
	<vehicle id="veh_1504_subway" type="Subway"/>
	<vehicle id="veh_1505_subway" type="Subway"/>
	<vehicle id="veh_1506_subway" type="Subway"/>
	<vehicle id="veh_1507_subway" type="Subway"/>
	<vehicle id="veh_1508_subway" type="Subway"/>
	<vehicle id="veh_1509_subway" type="Subway"/>
	<vehicle id="veh_150_subway" type="Subway"/>
	<vehicle id="veh_1510_subway" type="Subway"/>
	<vehicle id="veh_1511_subway" type="Subway"/>
	<vehicle id="veh_1512_subway" type="Subway"/>
	<vehicle id="veh_1513_subway" type="Subway"/>
	<vehicle id="veh_1514_subway" type="Subway"/>
	<vehicle id="veh_1515_subway" type="Subway"/>
	<vehicle id="veh_1516_subway" type="Subway"/>
	<vehicle id="veh_1517_subway" type="Subway"/>
	<vehicle id="veh_1518_subway" type="Subway"/>
	<vehicle id="veh_1519_subway" type="Subway"/>
	<vehicle id="veh_151_subway" type="Subway"/>
	<vehicle id="veh_1520_subway" type="Subway"/>
	<vehicle id="veh_1521_subway" type="Subway"/>
	<vehicle id="veh_1522_subway" type="Subway"/>
	<vehicle id="veh_1523_subway" type="Subway"/>
	<vehicle id="veh_1524_subway" type="Subway"/>
	<vehicle id="veh_1525_subway" type="Subway"/>
	<vehicle id="veh_1526_subway" type="Subway"/>
	<vehicle id="veh_1527_subway" type="Subway"/>
	<vehicle id="veh_1528_subway" type="Subway"/>
	<vehicle id="veh_1529_subway" type="Subway"/>
	<vehicle id="veh_152_subway" type="Subway"/>
	<vehicle id="veh_1530_subway" type="Subway"/>
	<vehicle id="veh_1531_subway" type="Subway"/>
	<vehicle id="veh_1532_subway" type="Subway"/>
	<vehicle id="veh_1533_subway" type="Subway"/>
	<vehicle id="veh_1534_subway" type="Subway"/>
	<vehicle id="veh_1535_subway" type="Subway"/>
	<vehicle id="veh_1536_subway" type="Subway"/>
	<vehicle id="veh_1537_subway" type="Subway"/>
	<vehicle id="veh_1538_subway" type="Subway"/>
	<vehicle id="veh_1539_subway" type="Subway"/>
	<vehicle id="veh_153_subway" type="Subway"/>
	<vehicle id="veh_1540_subway" type="Subway"/>
	<vehicle id="veh_1541_subway" type="Subway"/>
	<vehicle id="veh_1542_subway" type="Subway"/>
	<vehicle id="veh_1543_subway" type="Subway"/>
	<vehicle id="veh_1544_subway" type="Subway"/>
	<vehicle id="veh_1545_subway" type="Subway"/>