<?xml version="1.0" encoding="utf-8"?>
<vehicleDefinitions xmlns="http://www.matsim.org/files/dtd" xmlns:xsi="http://www.w3.org/2001/XMLSchema-instance" xsi:schemaLocation="http://www.matsim.org/files/dtd http://www.matsim.org/files/dtd/vehicleDefinitions_v2.0.xsd">
  <vehicleType id="1">
    <description>Small Train</description>
    <capacity seats="50" standingRoomInPersons="30" />
    <length meter="50.0" />
    <passengerCarEquivalents pce="3.0" />
  </vehicleType>
  <vehicle id="tr_1" type="1" />
  <vehicle id="tr_2" type="1" />
  <vehicle id="tr_3" type="1" />
</vehicleDefinitions>
