<?xml version="1.0" encoding="utf-8"?>
<!DOCTYPE transitSchedule SYSTEM "http://www.matsim.org/files/dtd/transitSchedule_v2.dtd">

<transitSchedule>
  <transitStops>
    <stopFacility id="BUS_ZXS" x="303870.5335961778" y="2770560.821526394" name="捷運忠孝新生站(公車)" linkRefId="50001" isBlocking="false" />
    <stopFacility id="BUS_NTU" x="304016.9658124588" y="2770539.933164831" name="臺北科技大學(忠孝)" linkRefId="50003" isBlocking="false" />
    <stopFacility id="BUS_GH" x="304423.16580240155" y="2770510.420042672" name="光華商場" linkRefId="50005" isBlocking="false" />
    <stopFacility id="BUS_ZXF" x="304355.77063324593" y="2770497.025738433" name="捷運忠孝復興站(公車)" linkRefId="50007" isBlocking="false" />
    <stopFacility id="MRT_BL14" x="303870.5335961778" y="2770560.821526394" name="忠孝新生" linkRefId="21643" isBlocking="false" />
    <stopFacility id="MRT_BL15" x="304650.86438900826" y="2770494.182424794" name="忠孝復興" linkRefId="21641" isBlocking="false" />
  </transitStops>

  <transitLine id="BUS_BLUE">
    <transitRoute id="BUS_EB">
      <description>Eastbound bus across the corridor.</description>
      <transportMode>bus</transportMode>
      <routeProfile>
        <stop refId="BUS_ZXS" departureOffset="00:00:00" awaitDeparture="true" />
        <stop refId="BUS_NTU" arrivalOffset="00:02:00" departureOffset="00:02:30" awaitDeparture="true" />
        <stop refId="BUS_GH" arrivalOffset="00:04:30" departureOffset="00:05:00" awaitDeparture="true" />
        <stop refId="BUS_ZXF" arrivalOffset="00:07:00" awaitDeparture="true" />
      </routeProfile>
      <route>
        <link refId="50001" />
        <link refId="50003" />
        <link refId="50005" />
        <link refId="50007" />
      </route>
      <departures>
        <departure id="BUS_EB_07:00" departureTime="07:00:00" vehicleRefId="bus_1" />
        <departure id="BUS_EB_07:15" departureTime="07:15:00" vehicleRefId="bus_2" />
        <departure id="BUS_EB_17:00" departureTime="17:00:00" vehicleRefId="bus_3" />
        <departure id="BUS_EB_17:15" departureTime="17:15:00" vehicleRefId="bus_4" />
      </departures>
    </transitRoute>
    <transitRoute id="BUS_WB">
      <description>Westbound return service.</description>
      <transportMode>bus</transportMode>
      <routeProfile>
        <stop refId="BUS_ZXF" departureOffset="00:00:00" awaitDeparture="true" />
        <stop refId="BUS_GH" arrivalOffset="00:02:30" departureOffset="00:03:00" awaitDeparture="true" />
        <stop refId="BUS_NTU" arrivalOffset="00:05:00" departureOffset="00:05:30" awaitDeparture="true" />
        <stop refId="BUS_ZXS" arrivalOffset="00:06:30" awaitDeparture="true" />
      </routeProfile>
      <route>
        <link refId="50008" />
        <link refId="50006" />
        <link refId="50004" />
        <link refId="50002" />
      </route>
      <departures>
        <departure id="BUS_WB_07:10" departureTime="07:10:00" vehicleRefId="bus_1" />
        <departure id="BUS_WB_07:25" departureTime="07:25:00" vehicleRefId="bus_2" />
        <departure id="BUS_WB_17:10" departureTime="17:10:00" vehicleRefId="bus_3" />
        <departure id="BUS_WB_17:25" departureTime="17:25:00" vehicleRefId="bus_4" />
      </departures>
    </transitRoute>
  </transitLine>

</transitSchedule>
