<?xml version="1.0" encoding="UTF-8"?>
<!DOCTYPE transitSchedule SYSTEM "http://www.matsim.org/files/dtd/transitSchedule_v2.dtd">

<transitSchedule>

	<transitStops>
		<stopFacility id="BL01_DN" x="292459.2054021727" y="2761426.1458051438" name="頂埔-下行月臺(板南線)" stopAreaId="076" isBlocking="false"/>
		<stopFacility id="BL01_UP" x="292459.2054021727" y="2761426.1458051438" name="頂埔-上行月臺(板南線)" stopAreaId="076" isBlocking="false"/>
		<stopFacility id="BL02_DN" x="294035.0508794822" y="2762173.23895046" name="永寧-下行月臺(板南線)" stopAreaId="077" isBlocking="false"/>
		<stopFacility id="BL02_UP" x="294035.0508794822" y="2762173.23895046" name="永寧-上行月臺(板南線)" stopAreaId="077" isBlocking="false"/>
		<stopFacility id="BL03_DN" x="294859.6990734095" y="2762874.8386587347" name="土城-下行月臺(板南線)" stopAreaId="078" isBlocking="false"/>
		<stopFacility id="BL03_UP" x="294859.6990734095" y="2762874.8386587347" name="土城-上行月臺(板南線)" stopAreaId="078" isBlocking="false"/>
		<stopFacility id="BL04_DN" x="295300.4898398059" y="2764224.8517480693" name="海山-下行月臺(板南線" stopAreaId="079" isBlocking="false"/>
		<stopFacility id="BL04_UP" x="295300.4898398059" y="2764224.8517480693" name="海山-上行月臺(板南線)" stopAreaId="079" isBlocking="false"/>
		<stopFacility id="BL05_DN" x="295672.75806585717" y="2765663.266213558" name="亞東醫院-下行月臺(板南線)" stopAreaId="080" isBlocking="false"/>
		<stopFacility id="BL05_UP" x="295672.75806585717" y="2765663.266213558" name="亞東醫院-上行月臺(板南線)" stopAreaId="080" isBlocking="false"/>
		<stopFacility id="BL06_DN" x="296356.4617399499" y="2766793.710940271" name="府中-下行月臺(板南線)" stopAreaId="081" isBlocking="false"/>
		<stopFacility id="BL06_UP" x="296356.4617399499" y="2766793.710940271" name="府中-上行月臺(板南線)" stopAreaId="081" isBlocking="false"/>
		<stopFacility id="BL07_DN" x="296660.1690383145" y="2767388.4471152932" name="板橋-下行月臺(板南線)" stopAreaId="082" isBlocking="false"/>
		<stopFacility id="BL07_UP" x="296660.1690383145" y="2767388.4471152932" name="板橋-上行月臺(板南線)" stopAreaId="082" isBlocking="false"/>
		<stopFacility id="BL08_DN" x="297236.90702420456" y="2768436.6099721375" name="新埔-下行月臺(板南線)" stopAreaId="083" isBlocking="false"/>
		<stopFacility id="BL08_UP" x="297236.90702420456" y="2768436.6099721375" name="新埔-上行月臺(板南線)" stopAreaId="083" isBlocking="false"/>
		<stopFacility id="BL09_DN" x="297689.8716625933" y="2769212.9908094765" name="江子翠-下行月臺(板南線)" stopAreaId="084" isBlocking="false"/>
		<stopFacility id="BL09_UP" x="297689.8716625933" y="2769212.9908094765" name="江子翠-上行月臺(板南線)" stopAreaId="084" isBlocking="false"/>
		<stopFacility id="BL10_DN" x="300488.7872939309" y="2769778.5391352274" name="龍山寺-下行月臺(板南線)" stopAreaId="085" isBlocking="false"/>
		<stopFacility id="BL10_UP" x="300488.7872939309" y="2769778.5391352274" name="龍山寺-上行月臺(板南線)" stopAreaId="085" isBlocking="false"/>
		<stopFacility id="BL11_DN" x="301278.15512185276" y="2770528.600776343" name="西門-下行月臺(板南線)" stopAreaId="086" isBlocking="false"/>
		<stopFacility id="BL11_UP" x="301278.15512185276" y="2770528.600776343" name="西門-上行月臺(板南線)" stopAreaId="086" isBlocking="false"/>
		<stopFacility id="BL12_DN" x="302208.73284823" y="2771006.7627904457" name="台北車站-下行月臺(板南線)" stopAreaId="051" isBlocking="false"/>
		<stopFacility id="BL12_UP" x="302208.73284823" y="2771006.7627904457" name="台北車站-上行月臺(板南線)" stopAreaId="051" isBlocking="false"/>
		<stopFacility id="BL13_DN" x="302862.28591230744" y="2770828.7266682894" name="善導寺-下行月臺(板南線)" stopAreaId="088" isBlocking="false"/>
		<stopFacility id="BL13_UP" x="302862.28591230744" y="2770828.7266682894" name="善導寺-上行月臺(板南線)" stopAreaId="088" isBlocking="false"/>
		<stopFacility id="BL14_DN" x="303804.1887079433" y="2770590.710859173" name="忠孝新生-下行月臺(板南線)" stopAreaId="089" isBlocking="false"/>
		<stopFacility id="BL14_UP" x="303804.1887079433" y="2770590.710859173" name="忠孝新生-上行月臺(板南線)" stopAreaId="089" isBlocking="false"/>
		<stopFacility id="BL15_DN" x="304996.8532790921" y="2770512.496446124" name="忠孝復興-下行月臺(板南線)" stopAreaId="010" isBlocking="false"/>
		<stopFacility id="BL15_UP" x="304996.8532790921" y="2770512.496446124" name="忠孝復興-上行月臺(板南線)" stopAreaId="010" isBlocking="false"/>
		<stopFacility id="BL16_DN" x="305544.2927337069" y="2770487.684429254" name="忠孝敦化-下行月臺(板南線)" stopAreaId="091" isBlocking="false"/>
		<stopFacility id="BL16_UP" x="305544.2927337069" y="2770487.684429254" name="忠孝敦化-上行月臺(板南線)" stopAreaId="091" isBlocking="false"/>
		<stopFacility id="BL17_DN" x="306287.5499477385" y="2770475.773540563" name="國父紀念館-下行月臺(板南線)" stopAreaId="092" isBlocking="false"/>
		<stopFacility id="BL17_UP" x="306287.5499477385" y="2770475.773540563" name="國父紀念館-上行月臺(板南線)" stopAreaId="092" isBlocking="false"/>
		<stopFacility id="BL18_DN" x="307081.8149554937" y="2770453.0393493082" name="市政府-下行月臺(板南線)" stopAreaId="093" isBlocking="false"/>
		<stopFacility id="BL18_UP" x="307081.8149554937" y="2770453.0393493082" name="市政府-上行月臺(板南線)" stopAreaId="093" isBlocking="false"/>
		<stopFacility id="BL19_DN" x="308143.0114224102" y="2770426.500366562" name="永春-下行月臺(板南線)" stopAreaId="094" isBlocking="false"/>
		<stopFacility id="BL19_UP" x="308143.0114224102" y="2770426.500366562" name="永春-上行月臺(板南線)" stopAreaId="094" isBlocking="false"/>
		<stopFacility id="BL20_DN" x="308753.6953534854" y="2770856.678763286" name="後山埤-下行月臺(板南線)" stopAreaId="095" isBlocking="false"/>
		<stopFacility id="BL20_UP" x="308753.6953534854" y="2770856.678763286" name="後山埤-上行月臺(板南線)" stopAreaId="095" isBlocking="false"/>
		<stopFacility id="BL21_DN" x="309856.694396023" y="2771497.6674138824" name="昆陽-下行月臺(板南線)" stopAreaId="096" isBlocking="false"/>
		<stopFacility id="BL21_UP" x="309856.694396023" y="2771497.6674138824" name="昆陽-上行月臺(板南線)" stopAreaId="096" isBlocking="false"/>
		<stopFacility id="BL22_DN" x="311242.4601240803" y="2771678.440148688" name="南港-下行月臺(板南線)" stopAreaId="097" isBlocking="false"/>
		<stopFacility id="BL22_UP" x="311242.4601240803" y="2771678.440148688" name="南港-上行月臺(板南線)" stopAreaId="097" isBlocking="false"/>
		<stopFacility id="BL23_DN" x="312239.01701073034" y="2772002.4049779843" name="南港展覽館-下行月臺(板南線)" stopAreaId="031" isBlocking="false"/>
		<stopFacility id="BL23_UP" x="312239.01701073034" y="2772002.4049779843" name="南港展覽館-上行月臺(板南線)" stopAreaId="031" isBlocking="false"/>
		<stopFacility id="BR01_DN" x="308496.32365194615" y="2765703.762516431" name="動物園-下行月臺(文湖線)" stopAreaId="019" isBlocking="false"/>
		<stopFacility id="BR01_UP" x="308496.32365194615" y="2765703.762516431" name="動物園-上行月臺(文湖線)" stopAreaId="019" isBlocking="false"/>
		<stopFacility id="BR02_DN" x="307852.885315267" y="2765704.9042476574" name="木柵-下行月臺(文湖線)" stopAreaId="018" isBlocking="false"/>
		<stopFacility id="BR02_UP" x="307852.885315267" y="2765704.9042476574" name="木柵-上行月臺(文湖線)" stopAreaId="018" isBlocking="false"/>
		<stopFacility id="BR03_DN" x="307344.07194327784" y="2765739.3159963596" name="萬芳社區-下行月臺(文湖線)" stopAreaId="017" isBlocking="false"/>
		<stopFacility id="BR03_UP" x="307344.07194327784" y="2765739.3159963596" name="萬芳社區-上行月臺(文湖線)" stopAreaId="017" isBlocking="false"/>
		<stopFacility id="BR04_DN" x="306334.69055290596" y="2765818.199038769" name="萬芳醫院-下行月臺(文湖線)" stopAreaId="016" isBlocking="false"/>
		<stopFacility id="BR04_UP" x="306334.69055290596" y="2765818.199038769" name="萬芳醫院-上行月臺(文湖線)" stopAreaId="016" isBlocking="false"/>
		<stopFacility id="BR05_DN" x="306226.26056822744" y="2766497.309287222" name="辛亥-下行月臺(文湖線)" stopAreaId="015" isBlocking="false"/>
		<stopFacility id="BR05_UP" x="306226.26056822744" y="2766497.309287222" name="辛亥-上行月臺(文湖線)" stopAreaId="015" isBlocking="false"/>
		<stopFacility id="BR06_DN" x="306400.7822499607" y="2767942.432969213" name="麟光-下行月臺(文湖線)" stopAreaId="014" isBlocking="false"/>
		<stopFacility id="BR06_UP" x="306400.7822499607" y="2767942.432969213" name="麟光-上行月臺(文湖線)" stopAreaId="014" isBlocking="false"/>
		<stopFacility id="BR07_DN" x="305811.63416655303" y="2768528.7436704617" name="六張犁-下行月臺(文湖線)" stopAreaId="013" isBlocking="false"/>
		<stopFacility id="BR07_UP" x="305811.63416655303" y="2768528.7436704617" name="六張犁-上行月臺(文湖線)" stopAreaId="013" isBlocking="false"/>
		<stopFacility id="BR08_DN" x="304845.93001579563" y="2768780.7071260507" name="科技大樓-下行月臺(文湖線)" stopAreaId="012" isBlocking="false"/>
		<stopFacility id="BR08_UP" x="304845.93001579563" y="2768780.7071260507" name="科技大樓-上行月臺(文湖線)" stopAreaId="012" isBlocking="false"/>
		<stopFacility id="BR09_DN" x="304732.5839693104" y="2769576.779975981" name="大安-下行月臺(文湖線)" stopAreaId="011" isBlocking="false"/>
		<stopFacility id="BR09_UP" x="304732.5839693104" y="2769576.779975981" name="大安-上行月臺(文湖線)" stopAreaId="011" isBlocking="false"/>
		<stopFacility id="BR10_DN" x="304996.8532790921" y="2770512.496446124" name="忠孝復興-下行月臺(文湖線)" stopAreaId="010" isBlocking="false"/>
		<stopFacility id="BR10_UP" x="304996.8532790921" y="2770512.496446124" name="忠孝復興-上行月臺(文湖線)" stopAreaId="010" isBlocking="false"/>
		<stopFacility id="BR11_DN" x="304919.30980199634" y="2771652.5361355515" name="南京復興-下行月臺(文湖線)" stopAreaId="009" isBlocking="false"/>
		<stopFacility id="BR11_UP" x="304919.30980199634" y="2771652.5361355515" name="南京復興-上行月臺(文湖線)" stopAreaId="009" isBlocking="false"/>
		<stopFacility id="BR12_DN" x="304906.5067369006" y="2772627.9047313468" name="中山國中-下行月臺(文湖線)" stopAreaId="008" isBlocking="false"/>
		<stopFacility id="BR12_UP" x="304906.5067369006" y="2772627.9047313468" name="中山國中-上行月臺(文湖線)" stopAreaId="008" isBlocking="false"/>
		<stopFacility id="BR13_DN" x="305692.03915908234" y="2772858.992824672" name="松山機場-下行月臺(文湖線)" stopAreaId="007" isBlocking="false"/>
		<stopFacility id="BR13_UP" x="305692.03915908234" y="2772858.992824672" name="松山機場-上行月臺(文湖線)" stopAreaId="007" isBlocking="false"/>
		<stopFacility id="BR14_DN" x="305157.9842321726" y="2774686.986814876" name="大直-下行月臺(文湖線)" stopAreaId="021" isBlocking="false"/>
		<stopFacility id="BR14_UP" x="305157.9842321726" y="2774686.986814876" name="大直-上行月臺(文湖線)" stopAreaId="021" isBlocking="false"/>
		<stopFacility id="BR15_DN" x="306042.495400086" y="2775288.742225346" name="劍南路-下行月臺(文湖線)" stopAreaId="022" isBlocking="false"/>
		<stopFacility id="BR15_UP" x="306042.495400086" y="2775288.742225346" name="劍南路-上行月臺(文湖線)" stopAreaId="022" isBlocking="false"/>
		<stopFacility id="BR16_DN" x="307218.3605238392" y="2774997.875197816" name="西湖-下行月臺(文湖線)" stopAreaId="023" isBlocking="false"/>
		<stopFacility id="BR16_UP" x="307218.3605238392" y="2774997.875197816" name="西湖-上行月臺(文湖線)" stopAreaId="023" isBlocking="false"/>
		<stopFacility id="BR17_DN" x="308019.5949917083" y="2774769.7550288155" name="港墘-下行月臺(文湖線)" stopAreaId="024" isBlocking="false"/>
		<stopFacility id="BR17_UP" x="308019.5949917083" y="2774769.7550288155" name="港墘-上行月臺(文湖線)" stopAreaId="024" isBlocking="false"/>
		<stopFacility id="BR18_DN" x="309012.9564850374" y="2774595.1266523832" name="文德-下行月臺(文湖線)" stopAreaId="025" isBlocking="false"/>
		<stopFacility id="BR18_UP" x="309012.9564850374" y="2774595.1266523832" name="文德-上行月臺(文湖線)" stopAreaId="025" isBlocking="false"/>
		<stopFacility id="BR19_DN" x="309954.99669108854" y="2775177.4503790834" name="內湖-下行月臺(文湖線)" stopAreaId="026" isBlocking="false"/>
		<stopFacility id="BR19_UP" x="309954.99669108854" y="2775177.4503790834" name="內湖-上行月臺(文湖線)" stopAreaId="026" isBlocking="false"/>
		<stopFacility id="BR20_DN" x="310746.90273126034" y="2775195.3561442825" name="大湖公園-下行月臺(文湖線)" stopAreaId="027" isBlocking="false"/>
		<stopFacility id="BR20_UP" x="310746.90273126034" y="2775195.3561442825" name="大湖公園-上行月臺(文湖線)" stopAreaId="027" isBlocking="false"/>
		<stopFacility id="BR21_DN" x="311249.8880506053" y="2773968.6222309074" name="葫洲-下行月臺(文湖線)" stopAreaId="028" isBlocking="false"/>
		<stopFacility id="BR21_UP" x="311249.8880506053" y="2773968.6222309074" name="葫洲-上行月臺(文湖線)" stopAreaId="028" isBlocking="false"/>
		<stopFacility id="BR22_DN" x="311695.3518090269" y="2773388.5378511962" name="東湖-下行月臺(文湖線)" stopAreaId="029" isBlocking="false"/>
		<stopFacility id="BR22_UP" x="311695.3518090269" y="2773388.5378511962" name="東湖-上行月臺(文湖線)" stopAreaId="029" isBlocking="false"/>
		<stopFacility id="BR23_DN" x="312048.72590747173" y="2772555.494804141" name="南港軟體園區-下行月臺(文湖線)" stopAreaId="030" isBlocking="false"/>
		<stopFacility id="BR23_UP" x="312048.72590747173" y="2772555.494804141" name="南港軟體園區-上行月臺(文湖線)" stopAreaId="030" isBlocking="false"/>
		<stopFacility id="BR24_DN" x="312239.01701073034" y="2772002.4049779843" name="南港展覽館-下行月臺(文湖線)" stopAreaId="031" isBlocking="false"/>
		<stopFacility id="BR24_UP" x="312239.01701073034" y="2772002.4049779843" name="南港展覽館-上行月臺(文湖線)" stopAreaId="031" isBlocking="false"/>
		<stopFacility id="G01_DN" x="304270.32452851" y="2761189.7907217043" name="新店-下行月臺(松山新店線)" stopAreaId="033" isBlocking="false"/>
		<stopFacility id="G01_UP" x="304270.32452851" y="2761189.7907217043" name="新店-上行月臺(松山新店線)" stopAreaId="033" isBlocking="false"/>
		<stopFacility id="G02_DN" x="304653.73682146275" y="2762280.145605365" name="新店區公所-下行月臺(松山新店線)" stopAreaId="034" isBlocking="false"/>
		<stopFacility id="G02_UP" x="304653.73682146275" y="2762280.145605365" name="新店區公所-上行月臺(松山新店線)" stopAreaId="034" isBlocking="false"/>
		<stopFacility id="G03A_UP" x="303569.42183243256" y="2762767.6659437176" name="小碧潭-上行月臺(松山新店線)" stopAreaId="032" isBlocking="false"/>
		<stopFacility id="G03_DN" x="304820.32071267965" y="2763168.049648761" name="七張-下行月臺(松山新店線)" stopAreaId="035" isBlocking="false"/>
		<stopFacility id="G03_UP" x="304820.32071267965" y="2763168.049648761" name="七張-上行月臺(松山新店線)" stopAreaId="035" isBlocking="false"/>
		<stopFacility id="G04_DN" x="304651.02344881825" y="2763972.700820053" name="大坪林-下行月臺(松山新店線)" stopAreaId="036" isBlocking="false"/>
		<stopFacility id="G04_UP" x="304651.02344881825" y="2763972.700820053" name="大坪林-上行月臺(松山新店線)" stopAreaId="036" isBlocking="false"/>
		<stopFacility id="G05_DN" x="304581.6971944645" y="2765091.5545019577" name="景美-下行月臺(松山新店線)" stopAreaId="037" isBlocking="false"/>
		<stopFacility id="G05_UP" x="304581.6971944645" y="2765091.5545019577" name="景美-上行月臺(松山新店線)" stopAreaId="037" isBlocking="false"/>
		<stopFacility id="G06_DN" x="304407.11334074946" y="2766104.8178148097" name="萬隆-下行月臺(松山新店線)" stopAreaId="038" isBlocking="false"/>
		<stopFacility id="G06_UP" x="304407.11334074946" y="2766104.8178148097" name="萬隆-上行月臺(松山新店線)" stopAreaId="038" isBlocking="false"/>
		<stopFacility id="G07_DN" x="303932.14513872826" y="2767521.0844866903" name="公館-下行月臺(松山新店線)" stopAreaId="039" isBlocking="false"/>
		<stopFacility id="G07_UP" x="303932.14513872826" y="2767521.0844866903" name="公館-上行月臺(松山新店線)" stopAreaId="039" isBlocking="false"/>
		<stopFacility id="G08_DN" x="303302.3410947753" y="2768177.899187549" name="台電大樓-下行月臺(松山新店線)" stopAreaId="040" isBlocking="false"/>
		<stopFacility id="G08_UP" x="303302.3410947753" y="2768177.899187549" name="台電大樓-上行月臺(松山新店線)" stopAreaId="040" isBlocking="false"/>
		<stopFacility id="G09_DN" x="302767.4955182893" y="2768800.5491248276" name="古亭-下行月臺(松山新店線)" stopAreaId="041" isBlocking="false"/>
		<stopFacility id="G09_UP" x="302767.4955182893" y="2768800.5491248276" name="古亭-上行月臺(松山新店線)" stopAreaId="041" isBlocking="false"/>
		<stopFacility id="G10_DN" x="302301.0523994686" y="2769506.9992470574" name="中正紀念堂-下行月臺(松山新店線)" stopAreaId="042" isBlocking="false"/>
		<stopFacility id="G10_UP" x="302301.0523994686" y="2769506.9992470574" name="中正紀念堂-上行月臺(松山新店線)" stopAreaId="042" isBlocking="false"/>
		<stopFacility id="G11_DN" x="301553.80384133034" y="2769816.300175694" name="小南門-下行月臺(松山新店線)" stopAreaId="043" isBlocking="false"/>
		<stopFacility id="G11_UP" x="301553.80384133034" y="2769816.300175694" name="小南門-上行月臺(松山新店線)" stopAreaId="043" isBlocking="false"/>
		<stopFacility id="G12_DN" x="301278.15512185276" y="2770528.600776343" name="西門-下行月臺(松山新店線)" stopAreaId="086" isBlocking="false"/>
		<stopFacility id="G12_UP" x="301278.15512185276" y="2770528.600776343" name="西門-上行月臺(松山新店線)" stopAreaId="086" isBlocking="false"/>
		<stopFacility id="G13_DN" x="301477.7359584088" y="2771363.315533522" name="北門-下行月臺(松山新店線)" stopAreaId="105" isBlocking="false"/>
		<stopFacility id="G13_UP" x="301477.7359584088" y="2771363.315533522" name="北門-上行月臺(松山新店線)" stopAreaId="105" isBlocking="false"/>
		<stopFacility id="G14_DN" x="302503.61297324795" y="2771706.944751381" name="中山-下行月臺(松山新店線)" stopAreaId="053" isBlocking="false"/>
		<stopFacility id="G14_UP" x="302503.61297324795" y="2771706.944751381" name="中山-上行月臺(松山新店線)" stopAreaId="053" isBlocking="false"/>
		<stopFacility id="G15_DN" x="303763.41540546075" y="2771719.823223702" name="松江南京-下行月臺(松山新店線)" stopAreaId="132" isBlocking="false"/>
		<stopFacility id="G15_UP" x="303763.41540546075" y="2771719.823223702" name="松江南京-上行月臺(松山新店線)" stopAreaId="132" isBlocking="false"/>
		<stopFacility id="G16_DN" x="304919.30980199634" y="2771652.5361355515" name="南京復興-下行月臺(松山新店線)" stopAreaId="009" isBlocking="false"/>
		<stopFacility id="G16_UP" x="304919.30980199634" y="2771652.5361355515" name="南京復興-上行月臺(松山新店線)" stopAreaId="009" isBlocking="false"/>
		<stopFacility id="G17_DN" x="305751.5716874558" y="2771597.867194637" name="台北小巨蛋-下行月臺(松山新店線)" stopAreaId="109" isBlocking="false"/>
		<stopFacility id="G17_UP" x="305751.5716874558" y="2771597.867194637" name="台北小巨蛋-上行月臺(松山新店線)" stopAreaId="109" isBlocking="false"/>
		<stopFacility id="G18_DN" x="306978.5968419912" y="2771610.465278407" name="南京三民-下行月臺(松山新店線)" stopAreaId="110" isBlocking="false"/>
		<stopFacility id="G18_UP" x="306978.5968419912" y="2771610.465278407" name="南京三民-上行月臺(松山新店線)" stopAreaId="110" isBlocking="false"/>
		<stopFacility id="G19_DN" x="308290.60202531295" y="2771453.1747215157" name="松山-下行月臺(松山新店線)" stopAreaId="111" isBlocking="false"/>
		<stopFacility id="G19_UP" x="308290.60202531295" y="2771453.1747215157" name="松山-上行月臺(松山新店線)" stopAreaId="111" isBlocking="false"/>
		<stopFacility id="O01_DN" x="301406.95125707315" y="2764773.6604636144" name="南勢角-下行月臺(中和新蘆線)" stopAreaId="048" isBlocking="false"/>
		<stopFacility id="O01_UP" x="301406.95125707315" y="2764773.6604636144" name="南勢角-上行月臺(中和新蘆線)" stopAreaId="048" isBlocking="false"/>
		<stopFacility id="O02_DN" x="300989.1411832471" y="2765199.100996394" name="景安-下行月臺(中和新蘆線)" stopAreaId="047" isBlocking="false"/>
		<stopFacility id="O02_UP" x="300989.1411832471" y="2765199.100996394" name="景安-上行月臺(中和新蘆線)" stopAreaId="047" isBlocking="false"/>
		<stopFacility id="O03_DN" x="301602.28304255445" y="2766195.525461598" name="永安市場-下行月臺(中和新蘆線)" stopAreaId="046" isBlocking="false"/>
		<stopFacility id="O03_UP" x="301602.28304255445" y="2766195.525461598" name="永安市場-上行月臺(中和新蘆線)" stopAreaId="046" isBlocking="false"/>
		<stopFacility id="O04_DN" x="302025.3483841501" y="2767411.4599689436" name="頂溪-下行月臺(中和新蘆線)" stopAreaId="045" isBlocking="false"/>
		<stopFacility id="O04_UP" x="302025.3483841501" y="2767411.4599689436" name="頂溪-上行月臺(中和新蘆線)" stopAreaId="045" isBlocking="false"/>
		<stopFacility id="O05_DN" x="302767.4955182893" y="2768800.5491248276" name="古亭-下行月臺(中和新蘆線)" stopAreaId="041" isBlocking="false"/>
		<stopFacility id="O05_UP" x="302767.4955182893" y="2768800.5491248276" name="古亭-上行月臺(中和新蘆線)" stopAreaId="041" isBlocking="false"/>
		<stopFacility id="O06_DN" x="303359.4757763461" y="2769635.9259388153" name="東門-下行月臺(中和新蘆線)" stopAreaId="134" isBlocking="false"/>
		<stopFacility id="O06_UP" x="303359.4757763461" y="2769635.9259388153" name="東門-上行月臺(中和新蘆線)" stopAreaId="134" isBlocking="false"/>
		<stopFacility id="O07_DN" x="303804.1887079433" y="2770590.710859173" name="忠孝新生-下行月臺(中和新蘆線)" stopAreaId="089" isBlocking="false"/>
		<stopFacility id="O07_UP" x="303804.1887079433" y="2770590.710859173" name="忠孝新生-上行月臺(中和新蘆線)" stopAreaId="089" isBlocking="false"/>
		<stopFacility id="O08_DN" x="303763.41540546075" y="2771719.823223702" name="松江南京-下行月臺(中和新蘆線)" stopAreaId="132" isBlocking="false"/>
		<stopFacility id="O08_UP" x="303763.41540546075" y="2771719.823223702" name="松江南京-上行月臺(中和新蘆線)" stopAreaId="132" isBlocking="false"/>
		<stopFacility id="O09_DN" x="303790.82744149654" y="2772445.1257657353" name="行天宮-下行月臺(中和新蘆線)" stopAreaId="131" isBlocking="false"/>
		<stopFacility id="O09_UP" x="303790.82744149654" y="2772445.1257657353" name="行天宮-上行月臺(中和新蘆線)" stopAreaId="131" isBlocking="false"/>
		<stopFacility id="O10_DN" x="303129.4006301296" y="2772821.913256245" name="中山國小-下行月臺(中和新蘆線)" stopAreaId="130" isBlocking="false"/>
		<stopFacility id="O10_UP" x="303129.4006301296" y="2772821.913256245" name="中山國小-上行月臺(中和新蘆線)" stopAreaId="130" isBlocking="false"/>
		<stopFacility id="O11_DN" x="302420.87309941766" y="2772784.2812742996" name="民權西路-下行月臺(中和新蘆線)" stopAreaId="055" isBlocking="false"/>
		<stopFacility id="O11_UP" x="302420.87309941766" y="2772784.2812742996" name="民權西路-上行月臺(中和新蘆線)" stopAreaId="055" isBlocking="false"/>
		<stopFacility id="O12_DN" x="301756.48925200745" y="2772878.1126536387" name="大橋頭-下行月臺(中和新蘆線)" stopAreaId="128" isBlocking="false"/>
		<stopFacility id="O12_UP" x="301756.48925200745" y="2772878.1126536387" name="大橋頭-上行月臺(中和新蘆線)" stopAreaId="128" isBlocking="false"/>
		<stopFacility id="O13_DN" x="300502.6269880295" y="2772857.3531389837" name="台北橋-下行月臺(中和新蘆線)" stopAreaId="127" isBlocking="false"/>
		<stopFacility id="O13_UP" x="300502.6269880295" y="2772857.3531389837" name="台北橋-上行月臺(中和新蘆線)" stopAreaId="127" isBlocking="false"/>
		<stopFacility id="O14_DN" x="299580.5306068618" y="2772452.5525964047" name="菜寮-下行月臺(中和新蘆線)" stopAreaId="126" isBlocking="false"/>
		<stopFacility id="O14_UP" x="299580.5306068618" y="2772452.5525964047" name="菜寮-上行月臺(中和新蘆線)" stopAreaId="126" isBlocking="false"/>
		<stopFacility id="O15_DN" x="298855.478062289" y="2772035.5597998896" name="三重-下行月臺(中和新蘆線)" stopAreaId="125" isBlocking="false"/>
		<stopFacility id="O15_UP" x="298855.478062289" y="2772035.5597998896" name="三重-上行月臺(中和新蘆線)" stopAreaId="125" isBlocking="false"/>
		<stopFacility id="O16_DN" x="297590.8319040713" y="2770990.9960658825" name="先嗇宮-下行月臺(中和新蘆線)" stopAreaId="124" isBlocking="false"/>
		<stopFacility id="O16_UP" x="297590.8319040713" y="2770990.9960658825" name="先嗇宮-上行月臺(中和新蘆線)" stopAreaId="124" isBlocking="false"/>
		<stopFacility id="O17_DN" x="296584.78136975283" y="2770258.1324826386" name="頭前庄-下行月臺(中和新蘆線)" stopAreaId="123" isBlocking="false"/>
		<stopFacility id="O17_UP" x="296584.78136975283" y="2770258.1324826386" name="頭前庄-上行月臺(中和新蘆線)" stopAreaId="123" isBlocking="false"/>
		<stopFacility id="O18_DN" x="295630.0153113586" y="2769850.060630044" name="新莊-下行月臺(中和新蘆線)" stopAreaId="122" isBlocking="false"/>
		<stopFacility id="O18_UP" x="295630.0153113586" y="2769850.060630044" name="新莊-上行月臺(中和新蘆線)" stopAreaId="122" isBlocking="false"/>
		<stopFacility id="O19_DN" x="293971.68272955366" y="2769480.2040050086" name="輔大-下行月臺(中和新蘆線)" stopAreaId="121" isBlocking="false"/>
		<stopFacility id="O19_UP" x="293971.68272955366" y="2769480.2040050086" name="輔大-上行月臺(中和新蘆線)" stopAreaId="121" isBlocking="false"/>
		<stopFacility id="O20_DN" x="292629.4854033181" y="2769064.2361075697" name="丹鳳-下行月臺(中和新蘆線)" stopAreaId="180" isBlocking="false"/>
		<stopFacility id="O20_UP" x="292629.4854033181" y="2769064.2361075697" name="丹鳳-上行月臺(中和新蘆線)" stopAreaId="180" isBlocking="false"/>
		<stopFacility id="O21_DN" x="291555.5410699239" y="2768289.3389542163" name="迴龍-下行月臺(中和新蘆線)" stopAreaId="179" isBlocking="false"/>
		<stopFacility id="O21_UP" x="291555.5410699239" y="2768289.3389542163" name="迴龍-上行月臺(中和新蘆線)" stopAreaId="179" isBlocking="false"/>
		<stopFacility id="O50_DN" x="300140.0199982963" y="2773653.5382340653" name="三重國小-下行月臺(中和新蘆線)" stopAreaId="178" isBlocking="false"/>
		<stopFacility id="O50_UP" x="300140.0199982963" y="2773653.5382340653" name="三重國小-上行月臺(中和新蘆線)" stopAreaId="178" isBlocking="false"/>
		<stopFacility id="O51_DN" x="299107.0139847233" y="2774334.873699201" name="三和國中-下行月臺(中和新蘆線)" stopAreaId="177" isBlocking="false"/>
		<stopFacility id="O51_UP" x="299107.0139847233" y="2774334.873699201" name="三和國中-上行月臺(中和新蘆線)" stopAreaId="177" isBlocking="false"/>
		<stopFacility id="O52_DN" x="298414.4046977328" y="2774778.2339038267" name="徐匯中學-下行月臺(中和新蘆線)" stopAreaId="176" isBlocking="false"/>
		<stopFacility id="O52_UP" x="298414.4046977328" y="2774778.2339038267" name="徐匯中學-上行月臺(中和新蘆線)" stopAreaId="176" isBlocking="false"/>
		<stopFacility id="O53_DN" x="297748.7215323212" y="2775323.074612061" name="三民高中-下行月臺(中和新蘆線)" stopAreaId="175" isBlocking="false"/>
		<stopFacility id="O53_UP" x="297748.7215323212" y="2775323.074612061" name="三民高中-上行月臺(中和新蘆線)" stopAreaId="175" isBlocking="false"/>
		<stopFacility id="O54_DN" x="296873.3501839454" y="2775995.1600226294" name="蘆洲-下行月臺(中和新蘆線)" stopAreaId="174" isBlocking="false"/>
		<stopFacility id="O54_UP" x="296873.3501839454" y="2775995.1600226294" name="蘆洲-上行月臺(中和新蘆線)" stopAreaId="174" isBlocking="false"/>
		<stopFacility id="R02_DN" x="307533.0220279514" y="2769486.8212965312" name="象山-下行月臺(淡水信義線)" stopAreaId="099" isBlocking="false"/>
		<stopFacility id="R02_UP" x="307533.0220279514" y="2769486.8212965312" name="象山-上行月臺(淡水信義線)" stopAreaId="099" isBlocking="false"/>
		<stopFacility id="R03_DN" x="306881.9934722977" y="2769536.156485655" name="台北101/世貿-下行月臺(淡水信義線)" stopAreaId="100" isBlocking="false"/>
		<stopFacility id="R03_UP" x="306881.9934722977" y="2769536.156485655" name="台北101/世貿-上行月臺(淡水信義線)" stopAreaId="100" isBlocking="false"/>
		<stopFacility id="R04_DN" x="305737.4348223377" y="2769548.054858509" name="信義安和-下行月臺(淡水信義線)" stopAreaId="101" isBlocking="false"/>
		<stopFacility id="R04_UP" x="305737.4348223377" y="2769548.054858509" name="信義安和-上行月臺(淡水信義線)" stopAreaId="101" isBlocking="false"/>
		<stopFacility id="R05_DN" x="304732.5839693104" y="2769576.779975981" name="大安-下行月臺(淡水信義線)" stopAreaId="011" isBlocking="false"/>
		<stopFacility id="R05_UP" x="304732.5839693104" y="2769576.779975981" name="大安-上行月臺(淡水信義線)" stopAreaId="011" isBlocking="false"/>
		<stopFacility id="R06_DN" x="304105.0272435215" y="2769564.7546237297" name="大安森林公園-下行月臺(淡水信義線)" stopAreaId="103" isBlocking="false"/>
		<stopFacility id="R06_UP" x="304105.0272435215" y="2769564.7546237297" name="大安森林公園-上行月臺(淡水信義線)" stopAreaId="103" isBlocking="false"/>
		<stopFacility id="R07_DN" x="303359.4757763461" y="2769635.9259388153" name="東門-下行月臺(淡水信義線)" stopAreaId="134" isBlocking="false"/>
		<stopFacility id="R07_UP" x="303359.4757763461" y="2769635.9259388153" name="東門-上行月臺(淡水信義線)" stopAreaId="134" isBlocking="false"/>
		<stopFacility id="R08_DN" x="302301.0523994686" y="2769506.9992470574" name="中正紀念堂-下行月臺(淡水信義線)" stopAreaId="042" isBlocking="false"/>
		<stopFacility id="R08_UP" x="302301.0523994686" y="2769506.9992470574" name="中正紀念堂-上行月臺(淡水信義線)" stopAreaId="042" isBlocking="false"/>
		<stopFacility id="R09_DN" x="302070.04459293996" y="2770462.2566447454" name="台大醫院-下行月臺(淡水信義線)" stopAreaId="050" isBlocking="false"/>
		<stopFacility id="R09_UP" x="302070.04459293996" y="2770462.2566447454" name="台大醫院-上行月臺(淡水信義線)" stopAreaId="050" isBlocking="false"/>
		<stopFacility id="R10_DN" x="302208.73284823" y="2771006.7627904457" name="台北車站-下行月臺(淡水信義線)" stopAreaId="051" isBlocking="false"/>
		<stopFacility id="R10_UP" x="302208.73284823" y="2771006.7627904457" name="台北車站-上行月臺(淡水信義線)" stopAreaId="051" isBlocking="false"/>
		<stopFacility id="R11_DN" x="302503.61297324795" y="2771706.944751381" name="中山-下行月臺(淡水信義線)" stopAreaId="053" isBlocking="false"/>
		<stopFacility id="R11_UP" x="302503.61297324795" y="2771706.944751381" name="中山-上行月臺(淡水信義線)" stopAreaId="053" isBlocking="false"/>
		<stopFacility id="R12_DN" x="302533.88988664316" y="2772255.802057084" name="雙連-下行月臺(淡水信義線)" stopAreaId="054" isBlocking="false"/>
		<stopFacility id="R12_UP" x="302533.88988664316" y="2772255.802057084" name="雙連-上行月臺(淡水信義線)" stopAreaId="054" isBlocking="false"/>
		<stopFacility id="R13_DN" x="302420.87309941766" y="2772784.2812742996" name="民權西路-下行月臺(淡水信義線)" stopAreaId="055" isBlocking="false"/>
		<stopFacility id="R13_UP" x="302420.87309941766" y="2772784.2812742996" name="民權西路-上行月臺(淡水信義線)" stopAreaId="055" isBlocking="false"/>
		<stopFacility id="R14_DN" x="302466.35034877015" y="2773787.84244833" name="圓山-下行月臺(淡水信義線)" stopAreaId="056" isBlocking="false"/>
		<stopFacility id="R14_UP" x="302466.35034877015" y="2773787.84244833" name="圓山-上行月臺(淡水信義線)" stopAreaId="056" isBlocking="false"/>
		<stopFacility id="R15_DN" x="302953.21308334323" y="2775206.774237271" name="劍潭-下行月臺(淡水信義線)" stopAreaId="057" isBlocking="false"/>
		<stopFacility id="R15_UP" x="302953.21308334323" y="2775206.774237271" name="劍潭-上行月臺(淡水信義線)" stopAreaId="057" isBlocking="false"/>
		<stopFacility id="R16_DN" x="303077.869687348" y="2776236.402898203" name="士林-下行月臺(淡水信義線)" stopAreaId="058" isBlocking="false"/>
		<stopFacility id="R16_UP" x="303077.869687348" y="2776236.402898203" name="士林-上行月臺(淡水信義線)" stopAreaId="058" isBlocking="false"/>
		<stopFacility id="R17_DN" x="302702.32537706336" y="2777256.8345034127" name="芝山-下行月臺(淡水信義線)" stopAreaId="059" isBlocking="false"/>
		<stopFacility id="R17_UP" x="302702.32537706336" y="2777256.8345034127" name="芝山-上行月臺(淡水信義線)" stopAreaId="059" isBlocking="false"/>
		<stopFacility id="R18_DN" x="302319.9760231329" y="2778041.480633226" name="明德-下行月臺(淡水信義線)" stopAreaId="060" isBlocking="false"/>
		<stopFacility id="R18_UP" x="302319.9760231329" y="2778041.480633226" name="明德-上行月臺(淡水信義線)" stopAreaId="060" isBlocking="false"/>
		<stopFacility id="R19_DN" x="301993.973392396" y="2778554.1953491312" name="石牌-下行月臺(淡水信義線)" stopAreaId="061" isBlocking="false"/>
		<stopFacility id="R19_UP" x="301993.973392396" y="2778554.1953491312" name="石牌-上行月臺(淡水信義線)" stopAreaId="061" isBlocking="false"/>
		<stopFacility id="R20_DN" x="301049.5893206377" y="2779259.148145943" name="唭哩岸-下行月臺(淡水信義線)" stopAreaId="062" isBlocking="false"/>
		<stopFacility id="R20_UP" x="301049.5893206377" y="2779259.148145943" name="唭哩岸-上行月臺(淡水信義線)" stopAreaId="062" isBlocking="false"/>