<?xml version="1.0" encoding="UTF-8"?>
<!DOCTYPE population SYSTEM "http://www.matsim.org/files/dtd/population_v6.dtd">

<population>
  <!--  [home,294035.06,2762173.2]
      	[pt interaction,294035.06,2762173.2]
      	[pt interaction,303804.2,2770590.8]-->
	<!-- PT Agent 1: metro_up_01 (永寧→忠孝新生 上行) -->
	<!-- 使用坐标 (x, y) 格式，不指定 link IDs，让 MATSim 自动寻路 -->
	<person id="metro_up_01">
		<plan selected="yes">
			<!-- Morning trip: home to work -->
			<!-- Home at 永寧站 coordinates -->
			<activity type="home" x="294035.05" y="2762173.24" end_time="06:20:00" />
			<!-- Walk to station (5 min) -->
			<leg mode="walk" dep_time="06:20:00" trav_time="00:05:00">
			</leg>
			<!-- PT interaction at station -->
			<activity type="pt interaction" x="294035.05" y="2762173.24" end_time="06:25:00" />
			<!-- PT leg to 忠孝新生 (28 min) -->
			<leg mode="pt" dep_time="06:25:00" trav_time="00:28:00">
			</leg>
			<!-- PT interaction at destination -->
			<activity type="pt interaction" x="303804.19" y="2770590.71" end_time="06:53:00" />
			<!-- Walk from station to work (5 min) -->
			<leg mode="walk" dep_time="06:53:00" trav_time="00:05:00">
			</leg>
			<!-- Work activity -->
			<activity type="work" x="303804.19" y="2770590.71" end_time="17:05:00" />

			<!-- Return trip: work to home -->
			<!-- Walk to station (5 min) -->
			<leg mode="walk" dep_time="17:05:00" trav_time="00:05:00">
			</leg>
			<!-- PT interaction at station -->
			<activity type="pt interaction" x="303804.19" y="2770590.71" end_time="17:10:00" />
			<!-- PT leg back to 永寧 (28 min) -->
			<leg mode="pt" dep_time="17:10:00" trav_time="00:28:00">
			</leg>
			<!-- PT interaction at home station -->
			<activity type="pt interaction" x="294035.05" y="2762173.24" end_time="17:38:00" />
			<!-- Walk home (5 min) -->
			<leg mode="walk" dep_time="17:38:00" trav_time="00:05:00">
			</leg>
			<!-- Home -->
			<activity type="home" x="294035.05" y="2762173.24" end_time="23:59:59" />
		</plan>
	</person>


	<!-- Car Agent: car_commuter_01 (汽車通勤) -->
	<person id="car_commuter_01">
		<plan selected="yes">
			<!-- Morning trip: home to work -->
			<!-- Home near 龍山寺 area -->
			<activity type="home" x="300488.79" y="2769778.54" end_time="07:30:00" />
			<!-- Drive to work (善導寺/忠孝敦化) - 15 min -->
			<leg mode="car" dep_time="07:30:00" trav_time="00:15:00">
			</leg>
			<!-- Work activity -->
			<activity type="work" x="305544.29" y="2770487.68" end_time="17:00:00" />

			<!-- Return trip: work to home -->
			<!-- Drive home (15 min) -->
			<leg mode="car" dep_time="17:00:00" trav_time="00:15:00">
			</leg>
			<!-- Home -->
			<activity type="home" x="300488.79" y="2769778.54" end_time="23:59:59" />
		</plan>
	</person>

</population>
