<?xml version="1.0" encoding="utf-8"?>
<!DOCTYPE population SYSTEM "http://www.matsim.org/files/dtd/population_v6.dtd">

<population>

  <attributes>
    <attribute name="coordinateReferenceSystem" class="java.lang.String">EPSG:3826</attribute>
  </attributes>

  <person id="car_1">
    <plan selected="yes">
      <activity type="h" x="304010.0" y="2770330.0" end_time="07:30:00" />
      <leg mode="car" />
      <activity type="w" x="304820.0" y="2770940.0" end_time="17:00:00" />
      <leg mode="car" />
      <activity type="h" x="304010.0" y="2770330.0" />
    </plan>
  </person>

  <person id="bus_1">
    <plan selected="yes">
      <activity type="h" x="303915.0" y="2770975.0" end_time="07:10:00" />
      <leg mode="pt" />
      <activity type="w" x="304830.0" y="2770280.0" end_time="17:10:00" />
      <leg mode="pt" />
      <activity type="h" x="303915.0" y="2770975.0" />
    </plan>
  </person>

  <person id="bus_2">
    <plan selected="yes">
      <activity type="h" x="304180.0" y="2770380.0" end_time="07:05:00" />
      <leg mode="pt" />
      <activity type="w" x="304460.0" y="2770930.0" end_time="16:45:00" />
      <leg mode="pt" />
      <activity type="h" x="304180.0" y="2770380.0" />
    </plan>
  </person>

  <person id="metro_1">
    <plan selected="yes">
      <activity type="h" x="303930.0" y="2770440.0" end_time="07:00:00" />
      <leg mode="pt" />
      <activity type="w" x="305040.0" y="2770260.0" end_time="16:30:00" />
      <leg mode="pt" />
      <activity type="h" x="303930.0" y="2770440.0" />
    </plan>
  </person>

  <person id="metro_2">
    <plan selected="yes">
      <activity type="h" x="304300.0" y="2770580.0" end_time="08:00:00" />
      <leg mode="pt" />
      <activity type="w" x="304820.0" y="2770600.0" end_time="18:00:00" />
      <leg mode="pt" />
      <activity type="h" x="304300.0" y="2770580.0" />
    </plan>
  </person>

  <person id="car_2">
    <plan selected="yes">
      <activity type="h" x="304320.0" y="2770680.0" end_time="06:45:00" />
      <leg mode="car" />
      <activity type="w" x="303940.0" y="2770330.0" end_time="16:00:00" />
      <leg mode="car" />
      <activity type="h" x="304320.0" y="2770680.0" />
    </plan>
  </person>

</population>
