<?xml version="1.0" encoding="utf-8"?>
<vehicleDefinitions xmlns="http://www.matsim.org/files/dtd" xmlns:xsi="http://www.w3.org/2001/XMLSchema-instance" xsi:schemaLocation="http://www.matsim.org/files/dtd http://www.matsim.org/files/dtd/vehicleDefinitions_v2.0.xsd">
  <vehicleType id="mrt_train">
    <description>Taipei Metro BL line train</description>
    <capacity seats="148" standingRoomInPersons="600" />
    <length meter="92.0" />
    <passengerCarEquivalents pce="10.0" />
    <networkMode networkMode="subway" />
  </vehicleType>
  <vehicle id="MRT_BL14_train" type="mrt_train" />
  <vehicle id="MRT_BL15_train" type="mrt_train" />
</vehicleDefinitions>
